<?xml version="1.0" encoding="UTF-8"?>

<flowdefs>

    <flow id="0" from="gneE12" begin="0" end="3600" number="200"/>
    <flow id="1" from="gneE10" begin="0" end="3600" number="200"/>
    <flow id="2" from="gneE14" begin="0" end="3600" number="200"/>
    <flow id="3" from="gneE16" begin="0" end="3600" number="200"/>
    
</flowdefs>
    