<?xml version="1.0" encoding="UTF-8"?>

<!-- generated on 10/13/20 21:49:07 by Eclipse SUMO jtrrouter Version 1.3.1
<configuration xmlns:xsi="http://www.w3.org/2001/XMLSchema-instance" xsi:noNamespaceSchemaLocation="http://sumo.dlr.de/xsd/jtrrouterConfiguration.xsd">

    <input>
        <net-file value="C:\Users\wangyannan\Desktop\practice\SUMO\task\task.net.xml"/>
        <route-files value="C:\Users\wangyannan\Desktop\practice\SUMO\task\task.flows.xml"/>
    </input>

    <output>
        <output-file value="C:\Users\wangyannan\Desktop\practice\SUMO\task\task.rou.xml"/>
    </output>

    <processing>
        <no-internal-links value="true"/>
        <turn-defaults value="30,50,20"/>
    </processing>

</configuration>
-->

<routes xmlns:xsi="http://www.w3.org/2001/XMLSchema-instance" xsi:noNamespaceSchemaLocation="http://sumo.dlr.de/xsd/routes_file.xsd">
    <vehicle id="0.0" depart="0.00">
        <route edges="gneE12 gneE13"/>
    </vehicle>
    <vehicle id="1.0" depart="0.00">
        <route edges="gneE10 gneE13"/>
    </vehicle>
    <vehicle id="2.0" depart="0.00">
        <route edges="gneE14 gneE11"/>
    </vehicle>
    <vehicle id="3.0" depart="0.00">
        <route edges="gneE16 gneE11"/>
    </vehicle>
    <vehicle id="0.1" depart="18.00">
        <route edges="gneE12 gneE15"/>
    </vehicle>
    <vehicle id="1.1" depart="18.00">
        <route edges="gneE10 gneE15"/>
    </vehicle>
    <vehicle id="2.1" depart="18.00">
        <route edges="gneE14 gneE9"/>
    </vehicle>
    <vehicle id="3.1" depart="18.00">
        <route edges="gneE16 gneE13"/>
    </vehicle>
    <vehicle id="0.2" depart="36.00">
        <route edges="gneE12 gneE15"/>
    </vehicle>
    <vehicle id="1.2" depart="36.00">
        <route edges="gneE10 gneE13"/>
    </vehicle>
    <vehicle id="2.2" depart="36.00">
        <route edges="gneE14 gneE11"/>
    </vehicle>
    <vehicle id="3.2" depart="36.00">
        <route edges="gneE16 gneE11"/>
    </vehicle>
    <vehicle id="0.3" depart="54.00">
        <route edges="gneE12 gneE15"/>
    </vehicle>
    <vehicle id="1.3" depart="54.00">
        <route edges="gneE10 gneE13"/>
    </vehicle>
    <vehicle id="2.3" depart="54.00">
        <route edges="gneE14 gneE9"/>
    </vehicle>
    <vehicle id="3.3" depart="54.00">
        <route edges="gneE16 gneE13"/>
    </vehicle>
    <vehicle id="0.4" depart="72.00">
        <route edges="gneE12 gneE9"/>
    </vehicle>
    <vehicle id="1.4" depart="72.00">
        <route edges="gneE10 gneE11"/>
    </vehicle>
    <vehicle id="2.4" depart="72.00">
        <route edges="gneE14 gneE9"/>
    </vehicle>
    <vehicle id="3.4" depart="72.00">
        <route edges="gneE16 gneE11"/>
    </vehicle>
    <vehicle id="0.5" depart="90.00">
        <route edges="gneE12 gneE9"/>
    </vehicle>
    <vehicle id="1.5" depart="90.00">
        <route edges="gneE10 gneE13"/>
    </vehicle>
    <vehicle id="2.5" depart="90.00">
        <route edges="gneE14 gneE9"/>
    </vehicle>
    <vehicle id="3.5" depart="90.00">
        <route edges="gneE16 gneE11"/>
    </vehicle>
    <vehicle id="0.6" depart="108.00">
        <route edges="gneE12 gneE13"/>
    </vehicle>
    <vehicle id="1.6" depart="108.00">
        <route edges="gneE10 gneE11"/>
    </vehicle>
    <vehicle id="2.6" depart="108.00">
        <route edges="gneE14 gneE15"/>
    </vehicle>
    <vehicle id="3.6" depart="108.00">
        <route edges="gneE16 gneE11"/>
    </vehicle>
    <vehicle id="0.7" depart="126.00">
        <route edges="gneE12 gneE15"/>
    </vehicle>
    <vehicle id="1.7" depart="126.00">
        <route edges="gneE10 gneE15"/>
    </vehicle>
    <vehicle id="2.7" depart="126.00">
        <route edges="gneE14 gneE11"/>
    </vehicle>
    <vehicle id="3.7" depart="126.00">
        <route edges="gneE16 gneE11"/>
    </vehicle>
    <vehicle id="0.8" depart="144.00">
        <route edges="gneE12 gneE15"/>
    </vehicle>
    <vehicle id="1.8" depart="144.00">
        <route edges="gneE10 gneE15"/>
    </vehicle>
    <vehicle id="2.8" depart="144.00">
        <route edges="gneE14 gneE15"/>
    </vehicle>
    <vehicle id="3.8" depart="144.00">
        <route edges="gneE16 gneE13"/>
    </vehicle>
    <vehicle id="0.9" depart="162.00">
        <route edges="gneE12 gneE15"/>
    </vehicle>
    <vehicle id="1.9" depart="162.00">
        <route edges="gneE10 gneE13"/>
    </vehicle>
    <vehicle id="2.9" depart="162.00">
        <route edges="gneE14 gneE11"/>
    </vehicle>
    <vehicle id="3.9" depart="162.00">
        <route edges="gneE16 gneE13"/>
    </vehicle>
    <vehicle id="0.10" depart="180.00">
        <route edges="gneE12 gneE15"/>
    </vehicle>
    <vehicle id="1.10" depart="180.00">
        <route edges="gneE10 gneE11"/>
    </vehicle>
    <vehicle id="2.10" depart="180.00">
        <route edges="gneE14 gneE11"/>
    </vehicle>
    <vehicle id="3.10" depart="180.00">
        <route edges="gneE16 gneE13"/>
    </vehicle>
    <vehicle id="0.11" depart="198.00">
        <route edges="gneE12 gneE9"/>
    </vehicle>
    <vehicle id="1.11" depart="198.00">
        <route edges="gneE10 gneE13"/>
    </vehicle>
    <vehicle id="2.11" depart="198.00">
        <route edges="gneE14 gneE11"/>
    </vehicle>
    <vehicle id="3.11" depart="198.00">
        <route edges="gneE16 gneE9"/>
    </vehicle>
</routes>
