<?xml version="1.0" encoding="UTF-8"?>

<!-- generated on 10/13/20 20:51:33 by Eclipse SUMO netedit Version 1.3.1
<configuration xmlns:xsi="http://www.w3.org/2001/XMLSchema-instance" xsi:noNamespaceSchemaLocation="http://sumo.dlr.de/xsd/netconvertConfiguration.xsd">

    <output>
        <output-file value="C:\Users\wangyannan\Desktop\practice\SUMO\task\task.net.xml"/>
    </output>

    <processing>
        <offset.disable-normalization value="true"/>
    </processing>

    <junctions>
        <no-turnarounds value="true"/>
    </junctions>

</configuration>
-->

<net version="1.3" junctionCornerDetail="5" limitTurnSpeed="5.50" xmlns:xsi="http://www.w3.org/2001/XMLSchema-instance" xsi:noNamespaceSchemaLocation="http://sumo.dlr.de/xsd/net_file.xsd">

    <location netOffset="0.00,0.00" convBoundary="-200.00,0.00,200.00,400.00" origBoundary="10000000000.00,10000000000.00,-10000000000.00,-10000000000.00" projParameter="!"/>

    <edge id=":gneJ8_0" function="internal">
        <lane id=":gneJ8_0_0" index="0" speed="6.51" length="9.03" shape="-8.00,213.60 -8.35,211.15 -9.40,209.40 -11.15,208.35 -13.60,208.00"/>
    </edge>
    <edge id=":gneJ8_1" function="internal">
        <lane id=":gneJ8_1_0" index="0" speed="13.89" length="27.20" shape="-8.00,213.60 -8.00,186.40"/>
        <lane id=":gneJ8_1_1" index="1" speed="13.89" length="27.20" shape="-4.80,213.60 -4.80,186.40"/>
        <lane id=":gneJ8_1_2" index="2" speed="13.89" length="27.20" shape="-1.60,213.60 -1.60,186.40"/>
    </edge>
    <edge id=":gneJ8_4" function="internal">
        <lane id=":gneJ8_4_0" index="0" speed="10.36" length="7.98" shape="-1.60,213.60 -0.65,206.95 0.00,205.87"/>
    </edge>
    <edge id=":gneJ8_20" function="internal">
        <lane id=":gneJ8_20_0" index="0" speed="10.36" length="16.53" shape="0.00,205.87 2.20,202.20 6.95,199.35 13.60,198.40"/>
    </edge>
    <edge id=":gneJ8_5" function="internal">
        <lane id=":gneJ8_5_0" index="0" speed="6.51" length="9.03" shape="13.60,208.00 11.15,208.35 9.40,209.40 8.35,211.15 8.00,213.60"/>
    </edge>
    <edge id=":gneJ8_6" function="internal">
        <lane id=":gneJ8_6_0" index="0" speed="13.89" length="27.20" shape="13.60,208.00 -13.60,208.00"/>
        <lane id=":gneJ8_6_1" index="1" speed="13.89" length="27.20" shape="13.60,204.80 -13.60,204.80"/>
        <lane id=":gneJ8_6_2" index="2" speed="13.89" length="27.20" shape="13.60,201.60 -13.60,201.60"/>
    </edge>
    <edge id=":gneJ8_9" function="internal">
        <lane id=":gneJ8_9_0" index="0" speed="10.36" length="7.98" shape="13.60,201.60 6.95,200.65 5.87,200.00"/>
    </edge>
    <edge id=":gneJ8_21" function="internal">
        <lane id=":gneJ8_21_0" index="0" speed="10.36" length="16.53" shape="5.87,200.00 2.20,197.80 -0.65,193.05 -1.60,186.40"/>
    </edge>
    <edge id=":gneJ8_10" function="internal">
        <lane id=":gneJ8_10_0" index="0" speed="6.51" length="9.03" shape="8.00,186.40 8.35,188.85 9.40,190.60 11.15,191.65 13.60,192.00"/>
    </edge>
    <edge id=":gneJ8_11" function="internal">
        <lane id=":gneJ8_11_0" index="0" speed="13.89" length="27.20" shape="8.00,186.40 8.00,213.60"/>
        <lane id=":gneJ8_11_1" index="1" speed="13.89" length="27.20" shape="4.80,186.40 4.80,213.60"/>
        <lane id=":gneJ8_11_2" index="2" speed="13.89" length="27.20" shape="1.60,186.40 1.60,213.60"/>
    </edge>
    <edge id=":gneJ8_14" function="internal">
        <lane id=":gneJ8_14_0" index="0" speed="10.36" length="7.98" shape="1.60,186.40 0.65,193.05 -0.00,194.13"/>
    </edge>
    <edge id=":gneJ8_22" function="internal">
        <lane id=":gneJ8_22_0" index="0" speed="10.36" length="16.53" shape="-0.00,194.13 -2.20,197.80 -6.95,200.65 -13.60,201.60"/>
    </edge>
    <edge id=":gneJ8_15" function="internal">
        <lane id=":gneJ8_15_0" index="0" speed="6.51" length="9.03" shape="-13.60,192.00 -11.15,191.65 -9.40,190.60 -8.35,188.85 -8.00,186.40"/>
    </edge>
    <edge id=":gneJ8_16" function="internal">
        <lane id=":gneJ8_16_0" index="0" speed="13.89" length="27.20" shape="-13.60,192.00 13.60,192.00"/>
        <lane id=":gneJ8_16_1" index="1" speed="13.89" length="27.20" shape="-13.60,195.20 13.60,195.20"/>
        <lane id=":gneJ8_16_2" index="2" speed="13.89" length="27.20" shape="-13.60,198.40 13.60,198.40"/>
    </edge>
    <edge id=":gneJ8_19" function="internal">
        <lane id=":gneJ8_19_0" index="0" speed="10.36" length="7.98" shape="-13.60,198.40 -6.95,199.35 -5.87,200.00"/>
    </edge>
    <edge id=":gneJ8_23" function="internal">
        <lane id=":gneJ8_23_0" index="0" speed="10.36" length="16.53" shape="-5.87,200.00 -2.20,202.20 0.65,206.95 1.60,213.60"/>
    </edge>

    <edge id="gneE10" from="gneJ10" to="gneJ8" priority="-1">
        <lane id="gneE10_0" index="0" speed="13.89" length="186.40" shape="-200.00,192.00 -13.60,192.00"/>
        <lane id="gneE10_1" index="1" speed="13.89" length="186.40" shape="-200.00,195.20 -13.60,195.20"/>
        <lane id="gneE10_2" index="2" speed="13.89" length="186.40" shape="-200.00,198.40 -13.60,198.40"/>
    </edge>
    <edge id="gneE11" from="gneJ8" to="gneJ11" priority="-1">
        <lane id="gneE11_0" index="0" speed="13.89" length="186.40" shape="8.00,213.60 8.00,400.00"/>
        <lane id="gneE11_1" index="1" speed="13.89" length="186.40" shape="4.80,213.60 4.80,400.00"/>
        <lane id="gneE11_2" index="2" speed="13.89" length="186.40" shape="1.60,213.60 1.60,400.00"/>
    </edge>
    <edge id="gneE12" from="gneJ11" to="gneJ8" priority="-1">
        <lane id="gneE12_0" index="0" speed="13.89" length="186.40" shape="-8.00,400.00 -8.00,213.60"/>
        <lane id="gneE12_1" index="1" speed="13.89" length="186.40" shape="-4.80,400.00 -4.80,213.60"/>
        <lane id="gneE12_2" index="2" speed="13.89" length="186.40" shape="-1.60,400.00 -1.60,213.60"/>
    </edge>
    <edge id="gneE13" from="gneJ8" to="gneJ12" priority="-1">
        <lane id="gneE13_0" index="0" speed="13.89" length="186.40" shape="13.60,192.00 200.00,192.00"/>
        <lane id="gneE13_1" index="1" speed="13.89" length="186.40" shape="13.60,195.20 200.00,195.20"/>
        <lane id="gneE13_2" index="2" speed="13.89" length="186.40" shape="13.60,198.40 200.00,198.40"/>
    </edge>
    <edge id="gneE14" from="gneJ12" to="gneJ8" priority="-1">
        <lane id="gneE14_0" index="0" speed="13.89" length="186.40" shape="200.00,208.00 13.60,208.00"/>
        <lane id="gneE14_1" index="1" speed="13.89" length="186.40" shape="200.00,204.80 13.60,204.80"/>
        <lane id="gneE14_2" index="2" speed="13.89" length="186.40" shape="200.00,201.60 13.60,201.60"/>
    </edge>
    <edge id="gneE15" from="gneJ8" to="gneJ13" priority="-1">
        <lane id="gneE15_0" index="0" speed="13.89" length="186.40" shape="-8.00,186.40 -8.00,0.00"/>
        <lane id="gneE15_1" index="1" speed="13.89" length="186.40" shape="-4.80,186.40 -4.80,0.00"/>
        <lane id="gneE15_2" index="2" speed="13.89" length="186.40" shape="-1.60,186.40 -1.60,0.00"/>
    </edge>
    <edge id="gneE16" from="gneJ13" to="gneJ8" priority="-1">
        <lane id="gneE16_0" index="0" speed="13.89" length="186.40" shape="8.00,0.00 8.00,186.40"/>
        <lane id="gneE16_1" index="1" speed="13.89" length="186.40" shape="4.80,0.00 4.80,186.40"/>
        <lane id="gneE16_2" index="2" speed="13.89" length="186.40" shape="1.60,0.00 1.60,186.40"/>
    </edge>
    <edge id="gneE9" from="gneJ8" to="gneJ9" priority="-1">
        <lane id="gneE9_0" index="0" speed="13.89" length="186.40" shape="-13.60,208.00 -200.00,208.00"/>
        <lane id="gneE9_1" index="1" speed="13.89" length="186.40" shape="-13.60,204.80 -200.00,204.80"/>
        <lane id="gneE9_2" index="2" speed="13.89" length="186.40" shape="-13.60,201.60 -200.00,201.60"/>
    </edge>

    <tlLogic id="gneJ8" type="static" programID="0" offset="0">
        <phase duration="42" state="GGGGgrrrrrGGGGgrrrrr"/>
        <phase duration="3"  state="yyyyyrrrrryyyyyrrrrr"/>
        <phase duration="42" state="rrrrrGGGGgrrrrrGGGGg"/>
        <phase duration="3"  state="rrrrryyyyyrrrrryyyyy"/>
    </tlLogic>

    <junction id="gneJ10" type="dead_end" x="-200.00" y="200.00" incLanes="" intLanes="" shape="-200.00,200.00 -200.00,190.40"/>
    <junction id="gneJ11" type="dead_end" x="0.00" y="400.00" incLanes="gneE11_0 gneE11_1 gneE11_2" intLanes="" shape="0.00,400.00 9.60,400.00 0.00,400.00"/>
    <junction id="gneJ12" type="dead_end" x="200.00" y="200.00" incLanes="gneE13_0 gneE13_1 gneE13_2" intLanes="" shape="200.00,200.00 200.00,190.40 200.00,200.00"/>
    <junction id="gneJ13" type="dead_end" x="0.00" y="0.00" incLanes="gneE15_0 gneE15_1 gneE15_2" intLanes="" shape="0.00,0.00 -9.60,0.00 0.00,0.00"/>
    <junction id="gneJ8" type="traffic_light" x="0.00" y="200.00" incLanes="gneE12_0 gneE12_1 gneE12_2 gneE14_0 gneE14_1 gneE14_2 gneE16_0 gneE16_1 gneE16_2 gneE10_0 gneE10_1 gneE10_2" intLanes=":gneJ8_0_0 :gneJ8_1_0 :gneJ8_1_1 :gneJ8_1_2 :gneJ8_20_0 :gneJ8_5_0 :gneJ8_6_0 :gneJ8_6_1 :gneJ8_6_2 :gneJ8_21_0 :gneJ8_10_0 :gneJ8_11_0 :gneJ8_11_1 :gneJ8_11_2 :gneJ8_22_0 :gneJ8_15_0 :gneJ8_16_0 :gneJ8_16_1 :gneJ8_16_2 :gneJ8_23_0" shape="-9.60,213.60 9.60,213.60 10.04,211.38 10.60,210.60 11.38,210.04 12.38,209.71 13.60,209.60 13.60,190.40 11.38,189.96 10.60,189.40 10.04,188.62 9.71,187.62 9.60,186.40 -9.60,186.40 -10.04,188.62 -10.60,189.40 -11.38,189.96 -12.38,190.29 -13.60,190.40 -13.60,209.60 -11.38,210.04 -10.60,210.60 -10.04,211.38 -9.71,212.38">
        <request index="0"  response="00000000000000000000" foes="00000000000111000000" cont="0"/>
        <request index="1"  response="10000000001000000000" foes="11111100001111000000" cont="0"/>
        <request index="2"  response="10000000001000000000" foes="11111100001111000000" cont="0"/>
        <request index="3"  response="10000000001000000000" foes="11111100001111000000" cont="0"/>
        <request index="4"  response="10000011101000000000" foes="11110011101111000000" cont="1"/>
        <request index="5"  response="00000011100000000000" foes="00000011100000000000" cont="0"/>
        <request index="6"  response="00000111100000011111" foes="10000111100000011111" cont="0"/>
        <request index="7"  response="00000111100000011111" foes="10000111100000011111" cont="0"/>
        <request index="8"  response="00000111100000011111" foes="10000111100000011111" cont="0"/>
        <request index="9"  response="01110111100000011110" foes="01110111100000011110" cont="1"/>
        <request index="10" response="00000000000000000000" foes="01110000000000000000" cont="0"/>
        <request index="11" response="10000000001000000000" foes="11110000001111110000" cont="0"/>
        <request index="12" response="10000000001000000000" foes="11110000001111110000" cont="0"/>
        <request index="13" response="10000000001000000000" foes="11110000001111110000" cont="0"/>
        <request index="14" response="10000000001000001110" foes="11110000001111001110" cont="1"/>
        <request index="15" response="00000000000000001110" foes="00000000000000001110" cont="0"/>
        <request index="16" response="00000111110000011110" foes="00000111111000011110" cont="0"/>
        <request index="17" response="00000111110000011110" foes="00000111111000011110" cont="0"/>
        <request index="18" response="00000111110000011110" foes="00000111111000011110" cont="0"/>
        <request index="19" response="00000111100111011110" foes="00000111100111011110" cont="1"/>
    </junction>
    <junction id="gneJ9" type="dead_end" x="-200.00" y="200.00" incLanes="gneE9_0 gneE9_1 gneE9_2" intLanes="" shape="-200.00,209.60 -200.00,200.00"/>

    <junction id=":gneJ8_20_0" type="internal" x="0.00" y="205.87" incLanes=":gneJ8_4_0 gneE16_0 gneE16_1 gneE16_2" intLanes=":gneJ8_6_0 :gneJ8_6_1 :gneJ8_6_2 :gneJ8_9_0 :gneJ8_10_0 :gneJ8_11_0 :gneJ8_11_1 :gneJ8_11_2 :gneJ8_16_0 :gneJ8_16_1 :gneJ8_16_2 :gneJ8_19_0"/>
    <junction id=":gneJ8_21_0" type="internal" x="5.87" y="200.00" incLanes=":gneJ8_9_0 gneE10_0 gneE10_1 gneE10_2" intLanes=":gneJ8_1_0 :gneJ8_1_1 :gneJ8_1_2 :gneJ8_4_0 :gneJ8_11_0 :gneJ8_11_1 :gneJ8_11_2 :gneJ8_14_0 :gneJ8_15_0 :gneJ8_16_0 :gneJ8_16_1 :gneJ8_16_2"/>
    <junction id=":gneJ8_22_0" type="internal" x="-0.00" y="194.13" incLanes=":gneJ8_14_0 gneE12_0 gneE12_1 gneE12_2" intLanes=":gneJ8_0_0 :gneJ8_1_0 :gneJ8_1_1 :gneJ8_1_2 :gneJ8_6_0 :gneJ8_6_1 :gneJ8_6_2 :gneJ8_9_0 :gneJ8_16_0 :gneJ8_16_1 :gneJ8_16_2 :gneJ8_19_0"/>
    <junction id=":gneJ8_23_0" type="internal" x="-5.87" y="200.00" incLanes=":gneJ8_19_0 gneE14_0 gneE14_1 gneE14_2" intLanes=":gneJ8_1_0 :gneJ8_1_1 :gneJ8_1_2 :gneJ8_4_0 :gneJ8_5_0 :gneJ8_6_0 :gneJ8_6_1 :gneJ8_6_2 :gneJ8_11_0 :gneJ8_11_1 :gneJ8_11_2 :gneJ8_14_0"/>

    <connection from="gneE10" to="gneE15" fromLane="0" toLane="0" via=":gneJ8_15_0" tl="gneJ8" linkIndex="15" dir="r" state="o"/>
    <connection from="gneE10" to="gneE13" fromLane="0" toLane="0" via=":gneJ8_16_0" tl="gneJ8" linkIndex="16" dir="s" state="o"/>
    <connection from="gneE10" to="gneE13" fromLane="1" toLane="1" via=":gneJ8_16_1" tl="gneJ8" linkIndex="17" dir="s" state="o"/>
    <connection from="gneE10" to="gneE13" fromLane="2" toLane="2" via=":gneJ8_16_2" tl="gneJ8" linkIndex="18" dir="s" state="o"/>
    <connection from="gneE10" to="gneE11" fromLane="2" toLane="2" via=":gneJ8_19_0" tl="gneJ8" linkIndex="19" dir="l" state="o"/>
    <connection from="gneE12" to="gneE9" fromLane="0" toLane="0" via=":gneJ8_0_0" tl="gneJ8" linkIndex="0" dir="r" state="O"/>
    <connection from="gneE12" to="gneE15" fromLane="0" toLane="0" via=":gneJ8_1_0" tl="gneJ8" linkIndex="1" dir="s" state="O"/>
    <connection from="gneE12" to="gneE15" fromLane="1" toLane="1" via=":gneJ8_1_1" tl="gneJ8" linkIndex="2" dir="s" state="O"/>
    <connection from="gneE12" to="gneE15" fromLane="2" toLane="2" via=":gneJ8_1_2" tl="gneJ8" linkIndex="3" dir="s" state="O"/>
    <connection from="gneE12" to="gneE13" fromLane="2" toLane="2" via=":gneJ8_4_0" tl="gneJ8" linkIndex="4" dir="l" state="o"/>
    <connection from="gneE14" to="gneE11" fromLane="0" toLane="0" via=":gneJ8_5_0" tl="gneJ8" linkIndex="5" dir="r" state="o"/>
    <connection from="gneE14" to="gneE9" fromLane="0" toLane="0" via=":gneJ8_6_0" tl="gneJ8" linkIndex="6" dir="s" state="o"/>
    <connection from="gneE14" to="gneE9" fromLane="1" toLane="1" via=":gneJ8_6_1" tl="gneJ8" linkIndex="7" dir="s" state="o"/>
    <connection from="gneE14" to="gneE9" fromLane="2" toLane="2" via=":gneJ8_6_2" tl="gneJ8" linkIndex="8" dir="s" state="o"/>
    <connection from="gneE14" to="gneE15" fromLane="2" toLane="2" via=":gneJ8_9_0" tl="gneJ8" linkIndex="9" dir="l" state="o"/>
    <connection from="gneE16" to="gneE13" fromLane="0" toLane="0" via=":gneJ8_10_0" tl="gneJ8" linkIndex="10" dir="r" state="O"/>
    <connection from="gneE16" to="gneE11" fromLane="0" toLane="0" via=":gneJ8_11_0" tl="gneJ8" linkIndex="11" dir="s" state="O"/>
    <connection from="gneE16" to="gneE11" fromLane="1" toLane="1" via=":gneJ8_11_1" tl="gneJ8" linkIndex="12" dir="s" state="O"/>
    <connection from="gneE16" to="gneE11" fromLane="2" toLane="2" via=":gneJ8_11_2" tl="gneJ8" linkIndex="13" dir="s" state="O"/>
    <connection from="gneE16" to="gneE9" fromLane="2" toLane="2" via=":gneJ8_14_0" tl="gneJ8" linkIndex="14" dir="l" state="o"/>

    <connection from=":gneJ8_0" to="gneE9" fromLane="0" toLane="0" dir="r" state="M"/>
    <connection from=":gneJ8_1" to="gneE15" fromLane="0" toLane="0" dir="s" state="M"/>
    <connection from=":gneJ8_1" to="gneE15" fromLane="1" toLane="1" dir="s" state="M"/>
    <connection from=":gneJ8_1" to="gneE15" fromLane="2" toLane="2" dir="s" state="M"/>
    <connection from=":gneJ8_4" to="gneE13" fromLane="0" toLane="2" via=":gneJ8_20_0" dir="l" state="m"/>
    <connection from=":gneJ8_20" to="gneE13" fromLane="0" toLane="2" dir="l" state="M"/>
    <connection from=":gneJ8_5" to="gneE11" fromLane="0" toLane="0" dir="r" state="M"/>
    <connection from=":gneJ8_6" to="gneE9" fromLane="0" toLane="0" dir="s" state="M"/>
    <connection from=":gneJ8_6" to="gneE9" fromLane="1" toLane="1" dir="s" state="M"/>
    <connection from=":gneJ8_6" to="gneE9" fromLane="2" toLane="2" dir="s" state="M"/>
    <connection from=":gneJ8_9" to="gneE15" fromLane="0" toLane="2" via=":gneJ8_21_0" dir="l" state="m"/>
    <connection from=":gneJ8_21" to="gneE15" fromLane="0" toLane="2" dir="l" state="M"/>
    <connection from=":gneJ8_10" to="gneE13" fromLane="0" toLane="0" dir="r" state="M"/>
    <connection from=":gneJ8_11" to="gneE11" fromLane="0" toLane="0" dir="s" state="M"/>
    <connection from=":gneJ8_11" to="gneE11" fromLane="1" toLane="1" dir="s" state="M"/>
    <connection from=":gneJ8_11" to="gneE11" fromLane="2" toLane="2" dir="s" state="M"/>
    <connection from=":gneJ8_14" to="gneE9" fromLane="0" toLane="2" via=":gneJ8_22_0" dir="l" state="m"/>
    <connection from=":gneJ8_22" to="gneE9" fromLane="0" toLane="2" dir="l" state="M"/>
    <connection from=":gneJ8_15" to="gneE15" fromLane="0" toLane="0" dir="r" state="M"/>
    <connection from=":gneJ8_16" to="gneE13" fromLane="0" toLane="0" dir="s" state="M"/>
    <connection from=":gneJ8_16" to="gneE13" fromLane="1" toLane="1" dir="s" state="M"/>
    <connection from=":gneJ8_16" to="gneE13" fromLane="2" toLane="2" dir="s" state="M"/>
    <connection from=":gneJ8_19" to="gneE11" fromLane="0" toLane="2" via=":gneJ8_23_0" dir="l" state="m"/>
    <connection from=":gneJ8_23" to="gneE11" fromLane="0" toLane="2" dir="l" state="M"/>

</net>
