<?xml version="1.0" encoding="UTF-8"?>

<!-- generated on 08/14/20 10:09:02 by Eclipse SUMO netedit Version 1.3.1
<configuration xmlns:xsi="http://www.w3.org/2001/XMLSchema-instance" xsi:noNamespaceSchemaLocation="http://sumo.dlr.de/xsd/netconvertConfiguration.xsd">

    <output>
        <output-file value="C:\Users\10539\Documents\My_SUMO\4RL-test\simple6nodes.net.xml"/>
    </output>

    <processing>
        <offset.disable-normalization value="true"/>
    </processing>

    <junctions>
        <no-turnarounds value="true"/>
    </junctions>

</configuration>
-->

<net version="1.3" junctionCornerDetail="5" limitTurnSpeed="5.50" xmlns:xsi="http://www.w3.org/2001/XMLSchema-instance" xsi:noNamespaceSchemaLocation="http://sumo.dlr.de/xsd/net_file.xsd">

    <location netOffset="0.00,0.00" convBoundary="-800.00,-800.00,800.00,300.00" origBoundary="10000000000.00,10000000000.00,-10000000000.00,-10000000000.00" projParameter="!"/>

    <edge id=":DJ10_0" function="internal">
        <lane id=":DJ10_0_0" index="0" speed="5.91" length="9.60" shape="800.00,-508.00 800.00,-492.00"/>
        <lane id=":DJ10_0_1" index="1" speed="4.77" length="9.60" shape="800.00,-504.80 800.00,-495.20"/>
        <lane id=":DJ10_0_2" index="2" speed="3.24" length="9.60" shape="800.00,-501.60 800.00,-498.40"/>
    </edge>
    <edge id=":J1_0" function="internal">
        <lane id=":J1_0_0" index="0" speed="6.51" length="9.03" shape="-508.00,13.60 -508.35,11.15 -509.40,9.40 -511.15,8.35 -513.60,8.00"/>
    </edge>
    <edge id=":J1_1" function="internal">
        <lane id=":J1_1_0" index="0" speed="13.89" length="27.20" shape="-504.80,13.60 -504.80,-13.60"/>
    </edge>
    <edge id=":J1_2" function="internal">
        <lane id=":J1_2_0" index="0" speed="10.36" length="13.42" shape="-501.60,13.60 -500.65,6.95 -497.80,2.20 -496.80,1.60"/>
    </edge>
    <edge id=":J1_12" function="internal">
        <lane id=":J1_12_0" index="0" speed="10.36" length="11.09" shape="-496.80,1.60 -493.05,-0.65 -486.40,-1.60"/>
    </edge>
    <edge id=":J1_3" function="internal">
        <lane id=":J1_3_0" index="0" speed="6.51" length="9.03" shape="-486.40,8.00 -488.85,8.35 -490.60,9.40 -491.65,11.15 -492.00,13.60"/>
    </edge>
    <edge id=":J1_4" function="internal">
        <lane id=":J1_4_0" index="0" speed="13.89" length="27.20" shape="-486.40,4.80 -513.60,4.80"/>
    </edge>
    <edge id=":J1_5" function="internal">
        <lane id=":J1_5_0" index="0" speed="10.36" length="13.42" shape="-486.40,1.60 -493.05,0.65 -497.80,-2.20 -498.40,-3.20"/>
    </edge>
    <edge id=":J1_13" function="internal">
        <lane id=":J1_13_0" index="0" speed="10.36" length="11.09" shape="-498.40,-3.20 -500.65,-6.95 -501.60,-13.60"/>
    </edge>
    <edge id=":J1_6" function="internal">
        <lane id=":J1_6_0" index="0" speed="6.51" length="9.03" shape="-492.00,-13.60 -491.65,-11.15 -490.60,-9.40 -488.85,-8.35 -486.40,-8.00"/>
    </edge>
    <edge id=":J1_7" function="internal">
        <lane id=":J1_7_0" index="0" speed="13.89" length="27.20" shape="-495.20,-13.60 -495.20,13.60"/>
    </edge>
    <edge id=":J1_8" function="internal">
        <lane id=":J1_8_0" index="0" speed="10.36" length="13.42" shape="-498.40,-13.60 -499.35,-6.95 -502.20,-2.20 -503.20,-1.60"/>
    </edge>
    <edge id=":J1_14" function="internal">
        <lane id=":J1_14_0" index="0" speed="10.36" length="11.09" shape="-503.20,-1.60 -506.95,0.65 -513.60,1.60"/>
    </edge>
    <edge id=":J1_9" function="internal">
        <lane id=":J1_9_0" index="0" speed="6.51" length="9.03" shape="-513.60,-8.00 -511.15,-8.35 -509.40,-9.40 -508.35,-11.15 -508.00,-13.60"/>
    </edge>
    <edge id=":J1_10" function="internal">
        <lane id=":J1_10_0" index="0" speed="13.89" length="27.20" shape="-513.60,-4.80 -486.40,-4.80"/>
    </edge>
    <edge id=":J1_11" function="internal">
        <lane id=":J1_11_0" index="0" speed="10.36" length="13.42" shape="-513.60,-1.60 -506.95,-0.65 -502.20,2.20 -501.60,3.20"/>
    </edge>
    <edge id=":J1_15" function="internal">
        <lane id=":J1_15_0" index="0" speed="10.36" length="11.09" shape="-501.60,3.20 -499.35,6.95 -498.40,13.60"/>
    </edge>
    <edge id=":J2_0" function="internal">
        <lane id=":J2_0_0" index="0" speed="6.51" length="9.03" shape="-8.00,13.60 -8.35,11.15 -9.40,9.40 -11.15,8.35 -13.60,8.00"/>
    </edge>
    <edge id=":J2_1" function="internal">
        <lane id=":J2_1_0" index="0" speed="13.89" length="27.20" shape="-4.80,13.60 -4.80,-13.60"/>
    </edge>
    <edge id=":J2_2" function="internal">
        <lane id=":J2_2_0" index="0" speed="10.36" length="13.42" shape="-1.60,13.60 -0.65,6.95 2.20,2.20 3.20,1.60"/>
    </edge>
    <edge id=":J2_12" function="internal">
        <lane id=":J2_12_0" index="0" speed="10.36" length="11.09" shape="3.20,1.60 6.95,-0.65 13.60,-1.60"/>
    </edge>
    <edge id=":J2_3" function="internal">
        <lane id=":J2_3_0" index="0" speed="6.51" length="9.03" shape="13.60,8.00 11.15,8.35 9.40,9.40 8.35,11.15 8.00,13.60"/>
    </edge>
    <edge id=":J2_4" function="internal">
        <lane id=":J2_4_0" index="0" speed="13.89" length="27.20" shape="13.60,4.80 -13.60,4.80"/>
    </edge>
    <edge id=":J2_5" function="internal">
        <lane id=":J2_5_0" index="0" speed="10.36" length="13.42" shape="13.60,1.60 6.95,0.65 2.20,-2.20 1.60,-3.20"/>
    </edge>
    <edge id=":J2_13" function="internal">
        <lane id=":J2_13_0" index="0" speed="10.36" length="11.09" shape="1.60,-3.20 -0.65,-6.95 -1.60,-13.60"/>
    </edge>
    <edge id=":J2_6" function="internal">
        <lane id=":J2_6_0" index="0" speed="6.51" length="9.03" shape="8.00,-13.60 8.35,-11.15 9.40,-9.40 11.15,-8.35 13.60,-8.00"/>
    </edge>
    <edge id=":J2_7" function="internal">
        <lane id=":J2_7_0" index="0" speed="13.89" length="27.20" shape="4.80,-13.60 4.80,13.60"/>
    </edge>
    <edge id=":J2_8" function="internal">
        <lane id=":J2_8_0" index="0" speed="10.36" length="13.42" shape="1.60,-13.60 0.65,-6.95 -2.20,-2.20 -3.20,-1.60"/>
    </edge>
    <edge id=":J2_14" function="internal">
        <lane id=":J2_14_0" index="0" speed="10.36" length="11.09" shape="-3.20,-1.60 -6.95,0.65 -13.60,1.60"/>
    </edge>
    <edge id=":J2_9" function="internal">
        <lane id=":J2_9_0" index="0" speed="6.51" length="9.03" shape="-13.60,-8.00 -11.15,-8.35 -9.40,-9.40 -8.35,-11.15 -8.00,-13.60"/>
    </edge>
    <edge id=":J2_10" function="internal">
        <lane id=":J2_10_0" index="0" speed="13.89" length="27.20" shape="-13.60,-4.80 13.60,-4.80"/>
    </edge>
    <edge id=":J2_11" function="internal">
        <lane id=":J2_11_0" index="0" speed="10.36" length="13.42" shape="-13.60,-1.60 -6.95,-0.65 -2.20,2.20 -1.60,3.20"/>
    </edge>
    <edge id=":J2_15" function="internal">
        <lane id=":J2_15_0" index="0" speed="10.36" length="11.09" shape="-1.60,3.20 0.65,6.95 1.60,13.60"/>
    </edge>
    <edge id=":J3_0" function="internal">
        <lane id=":J3_0_0" index="0" speed="6.51" length="9.03" shape="492.00,13.60 491.65,11.15 490.60,9.40 488.85,8.35 486.40,8.00"/>
    </edge>
    <edge id=":J3_1" function="internal">
        <lane id=":J3_1_0" index="0" speed="13.89" length="27.20" shape="495.20,13.60 495.20,-13.60"/>
    </edge>
    <edge id=":J3_2" function="internal">
        <lane id=":J3_2_0" index="0" speed="10.36" length="13.42" shape="498.40,13.60 499.35,6.95 502.20,2.20 503.20,1.60"/>
    </edge>
    <edge id=":J3_12" function="internal">
        <lane id=":J3_12_0" index="0" speed="10.36" length="11.09" shape="503.20,1.60 506.95,-0.65 513.60,-1.60"/>
    </edge>
    <edge id=":J3_3" function="internal">
        <lane id=":J3_3_0" index="0" speed="6.51" length="9.03" shape="513.60,8.00 511.15,8.35 509.40,9.40 508.35,11.15 508.00,13.60"/>
    </edge>
    <edge id=":J3_4" function="internal">
        <lane id=":J3_4_0" index="0" speed="13.89" length="27.20" shape="513.60,4.80 486.40,4.80"/>
    </edge>
    <edge id=":J3_5" function="internal">
        <lane id=":J3_5_0" index="0" speed="10.36" length="13.42" shape="513.60,1.60 506.95,0.65 502.20,-2.20 501.60,-3.20"/>
    </edge>
    <edge id=":J3_13" function="internal">
        <lane id=":J3_13_0" index="0" speed="10.36" length="11.09" shape="501.60,-3.20 499.35,-6.95 498.40,-13.60"/>
    </edge>
    <edge id=":J3_6" function="internal">
        <lane id=":J3_6_0" index="0" speed="6.51" length="9.03" shape="508.00,-13.60 508.35,-11.15 509.40,-9.40 511.15,-8.35 513.60,-8.00"/>
    </edge>
    <edge id=":J3_7" function="internal">
        <lane id=":J3_7_0" index="0" speed="13.89" length="27.20" shape="504.80,-13.60 504.80,13.60"/>
    </edge>
    <edge id=":J3_8" function="internal">
        <lane id=":J3_8_0" index="0" speed="10.36" length="13.42" shape="501.60,-13.60 500.65,-6.95 497.80,-2.20 496.80,-1.60"/>
    </edge>
    <edge id=":J3_14" function="internal">
        <lane id=":J3_14_0" index="0" speed="10.36" length="11.09" shape="496.80,-1.60 493.05,0.65 486.40,1.60"/>
    </edge>
    <edge id=":J3_9" function="internal">
        <lane id=":J3_9_0" index="0" speed="6.51" length="9.03" shape="486.40,-8.00 488.85,-8.35 490.60,-9.40 491.65,-11.15 492.00,-13.60"/>
    </edge>
    <edge id=":J3_10" function="internal">
        <lane id=":J3_10_0" index="0" speed="13.89" length="27.20" shape="486.40,-4.80 513.60,-4.80"/>
    </edge>
    <edge id=":J3_11" function="internal">
        <lane id=":J3_11_0" index="0" speed="10.36" length="13.42" shape="486.40,-1.60 493.05,-0.65 497.80,2.20 498.40,3.20"/>
    </edge>
    <edge id=":J3_15" function="internal">
        <lane id=":J3_15_0" index="0" speed="10.36" length="11.09" shape="498.40,3.20 500.65,6.95 501.60,13.60"/>
    </edge>
    <edge id=":J4_0" function="internal">
        <lane id=":J4_0_0" index="0" speed="6.51" length="9.03" shape="-508.00,-486.40 -508.35,-488.85 -509.40,-490.60 -511.15,-491.65 -513.60,-492.00"/>
    </edge>
    <edge id=":J4_1" function="internal">
        <lane id=":J4_1_0" index="0" speed="13.89" length="27.20" shape="-504.80,-486.40 -504.80,-513.60"/>
    </edge>
    <edge id=":J4_2" function="internal">
        <lane id=":J4_2_0" index="0" speed="10.36" length="13.42" shape="-501.60,-486.40 -500.65,-493.05 -497.80,-497.80 -496.80,-498.40"/>
    </edge>
    <edge id=":J4_12" function="internal">
        <lane id=":J4_12_0" index="0" speed="10.36" length="11.09" shape="-496.80,-498.40 -493.05,-500.65 -486.40,-501.60"/>
    </edge>
    <edge id=":J4_3" function="internal">
        <lane id=":J4_3_0" index="0" speed="6.51" length="9.03" shape="-486.40,-492.00 -488.85,-491.65 -490.60,-490.60 -491.65,-488.85 -492.00,-486.40"/>
    </edge>
    <edge id=":J4_4" function="internal">
        <lane id=":J4_4_0" index="0" speed="13.89" length="27.20" shape="-486.40,-495.20 -513.60,-495.20"/>
    </edge>
    <edge id=":J4_5" function="internal">
        <lane id=":J4_5_0" index="0" speed="10.36" length="13.42" shape="-486.40,-498.40 -493.05,-499.35 -497.80,-502.20 -498.40,-503.20"/>
    </edge>
    <edge id=":J4_13" function="internal">
        <lane id=":J4_13_0" index="0" speed="10.36" length="11.09" shape="-498.40,-503.20 -500.65,-506.95 -501.60,-513.60"/>
    </edge>
    <edge id=":J4_6" function="internal">
        <lane id=":J4_6_0" index="0" speed="6.51" length="9.03" shape="-492.00,-513.60 -491.65,-511.15 -490.60,-509.40 -488.85,-508.35 -486.40,-508.00"/>
    </edge>
    <edge id=":J4_7" function="internal">
        <lane id=":J4_7_0" index="0" speed="13.89" length="27.20" shape="-495.20,-513.60 -495.20,-486.40"/>
    </edge>
    <edge id=":J4_8" function="internal">
        <lane id=":J4_8_0" index="0" speed="10.36" length="13.42" shape="-498.40,-513.60 -499.35,-506.95 -502.20,-502.20 -503.20,-501.60"/>
    </edge>
    <edge id=":J4_14" function="internal">
        <lane id=":J4_14_0" index="0" speed="10.36" length="11.09" shape="-503.20,-501.60 -506.95,-499.35 -513.60,-498.40"/>
    </edge>
    <edge id=":J4_9" function="internal">
        <lane id=":J4_9_0" index="0" speed="6.51" length="9.03" shape="-513.60,-508.00 -511.15,-508.35 -509.40,-509.40 -508.35,-511.15 -508.00,-513.60"/>
    </edge>
    <edge id=":J4_10" function="internal">
        <lane id=":J4_10_0" index="0" speed="13.89" length="27.20" shape="-513.60,-504.80 -486.40,-504.80"/>
    </edge>
    <edge id=":J4_11" function="internal">
        <lane id=":J4_11_0" index="0" speed="10.36" length="13.42" shape="-513.60,-501.60 -506.95,-500.65 -502.20,-497.80 -501.60,-496.80"/>
    </edge>
    <edge id=":J4_15" function="internal">
        <lane id=":J4_15_0" index="0" speed="10.36" length="11.09" shape="-501.60,-496.80 -499.35,-493.05 -498.40,-486.40"/>
    </edge>
    <edge id=":J5_0" function="internal">
        <lane id=":J5_0_0" index="0" speed="6.51" length="9.03" shape="-8.00,-486.40 -8.35,-488.85 -9.40,-490.60 -11.15,-491.65 -13.60,-492.00"/>
    </edge>
    <edge id=":J5_1" function="internal">
        <lane id=":J5_1_0" index="0" speed="13.89" length="27.20" shape="-4.80,-486.40 -4.80,-513.60"/>
    </edge>
    <edge id=":J5_2" function="internal">
        <lane id=":J5_2_0" index="0" speed="10.36" length="13.42" shape="-1.60,-486.40 -0.65,-493.05 2.20,-497.80 3.20,-498.40"/>
    </edge>
    <edge id=":J5_12" function="internal">
        <lane id=":J5_12_0" index="0" speed="10.36" length="11.09" shape="3.20,-498.40 6.95,-500.65 13.60,-501.60"/>
    </edge>
    <edge id=":J5_3" function="internal">
        <lane id=":J5_3_0" index="0" speed="6.51" length="9.03" shape="13.60,-492.00 11.15,-491.65 9.40,-490.60 8.35,-488.85 8.00,-486.40"/>
    </edge>
    <edge id=":J5_4" function="internal">
        <lane id=":J5_4_0" index="0" speed="13.89" length="27.20" shape="13.60,-495.20 -13.60,-495.20"/>
    </edge>
    <edge id=":J5_5" function="internal">
        <lane id=":J5_5_0" index="0" speed="10.36" length="13.42" shape="13.60,-498.40 6.95,-499.35 2.20,-502.20 1.60,-503.20"/>
    </edge>
    <edge id=":J5_13" function="internal">
        <lane id=":J5_13_0" index="0" speed="10.36" length="11.09" shape="1.60,-503.20 -0.65,-506.95 -1.60,-513.60"/>
    </edge>
    <edge id=":J5_6" function="internal">
        <lane id=":J5_6_0" index="0" speed="6.51" length="9.03" shape="8.00,-513.60 8.35,-511.15 9.40,-509.40 11.15,-508.35 13.60,-508.00"/>
    </edge>
    <edge id=":J5_7" function="internal">
        <lane id=":J5_7_0" index="0" speed="13.89" length="27.20" shape="4.80,-513.60 4.80,-486.40"/>
    </edge>
    <edge id=":J5_8" function="internal">
        <lane id=":J5_8_0" index="0" speed="10.36" length="13.42" shape="1.60,-513.60 0.65,-506.95 -2.20,-502.20 -3.20,-501.60"/>
    </edge>
    <edge id=":J5_14" function="internal">
        <lane id=":J5_14_0" index="0" speed="10.36" length="11.09" shape="-3.20,-501.60 -6.95,-499.35 -13.60,-498.40"/>
    </edge>
    <edge id=":J5_9" function="internal">
        <lane id=":J5_9_0" index="0" speed="6.51" length="9.03" shape="-13.60,-508.00 -11.15,-508.35 -9.40,-509.40 -8.35,-511.15 -8.00,-513.60"/>
    </edge>
    <edge id=":J5_10" function="internal">
        <lane id=":J5_10_0" index="0" speed="13.89" length="27.20" shape="-13.60,-504.80 13.60,-504.80"/>
    </edge>
    <edge id=":J5_11" function="internal">
        <lane id=":J5_11_0" index="0" speed="10.36" length="13.42" shape="-13.60,-501.60 -6.95,-500.65 -2.20,-497.80 -1.60,-496.80"/>
    </edge>
    <edge id=":J5_15" function="internal">
        <lane id=":J5_15_0" index="0" speed="10.36" length="11.09" shape="-1.60,-496.80 0.65,-493.05 1.60,-486.40"/>
    </edge>
    <edge id=":J6_0" function="internal">
        <lane id=":J6_0_0" index="0" speed="6.51" length="9.03" shape="492.00,-486.40 491.65,-488.85 490.60,-490.60 488.85,-491.65 486.40,-492.00"/>
    </edge>
    <edge id=":J6_1" function="internal">
        <lane id=":J6_1_0" index="0" speed="13.89" length="27.20" shape="495.20,-486.40 495.20,-513.60"/>
    </edge>
    <edge id=":J6_2" function="internal">
        <lane id=":J6_2_0" index="0" speed="10.36" length="13.42" shape="498.40,-486.40 499.35,-493.05 502.20,-497.80 503.20,-498.40"/>
    </edge>
    <edge id=":J6_12" function="internal">
        <lane id=":J6_12_0" index="0" speed="10.36" length="11.09" shape="503.20,-498.40 506.95,-500.65 513.60,-501.60"/>
    </edge>
    <edge id=":J6_3" function="internal">
        <lane id=":J6_3_0" index="0" speed="6.51" length="9.03" shape="513.60,-492.00 511.15,-491.65 509.40,-490.60 508.35,-488.85 508.00,-486.40"/>
    </edge>
    <edge id=":J6_4" function="internal">
        <lane id=":J6_4_0" index="0" speed="13.89" length="27.20" shape="513.60,-495.20 486.40,-495.20"/>
    </edge>
    <edge id=":J6_5" function="internal">
        <lane id=":J6_5_0" index="0" speed="10.36" length="13.42" shape="513.60,-498.40 506.95,-499.35 502.20,-502.20 501.60,-503.20"/>
    </edge>
    <edge id=":J6_13" function="internal">
        <lane id=":J6_13_0" index="0" speed="10.36" length="11.09" shape="501.60,-503.20 499.35,-506.95 498.40,-513.60"/>
    </edge>
    <edge id=":J6_6" function="internal">
        <lane id=":J6_6_0" index="0" speed="6.51" length="9.03" shape="508.00,-513.60 508.35,-511.15 509.40,-509.40 511.15,-508.35 513.60,-508.00"/>
    </edge>
    <edge id=":J6_7" function="internal">
        <lane id=":J6_7_0" index="0" speed="13.89" length="27.20" shape="504.80,-513.60 504.80,-486.40"/>
    </edge>
    <edge id=":J6_8" function="internal">
        <lane id=":J6_8_0" index="0" speed="10.36" length="13.42" shape="501.60,-513.60 500.65,-506.95 497.80,-502.20 496.80,-501.60"/>
    </edge>
    <edge id=":J6_14" function="internal">
        <lane id=":J6_14_0" index="0" speed="10.36" length="11.09" shape="496.80,-501.60 493.05,-499.35 486.40,-498.40"/>
    </edge>
    <edge id=":J6_9" function="internal">
        <lane id=":J6_9_0" index="0" speed="6.51" length="9.03" shape="486.40,-508.00 488.85,-508.35 490.60,-509.40 491.65,-511.15 492.00,-513.60"/>
    </edge>
    <edge id=":J6_10" function="internal">
        <lane id=":J6_10_0" index="0" speed="13.89" length="27.20" shape="486.40,-504.80 513.60,-504.80"/>
    </edge>
    <edge id=":J6_11" function="internal">
        <lane id=":J6_11_0" index="0" speed="10.36" length="13.42" shape="486.40,-501.60 493.05,-500.65 497.80,-497.80 498.40,-496.80"/>
    </edge>
    <edge id=":J6_15" function="internal">
        <lane id=":J6_15_0" index="0" speed="10.36" length="11.09" shape="498.40,-496.80 500.65,-493.05 501.60,-486.40"/>
    </edge>

    <edge id="eDJ10J6" from="DJ10" to="J6" priority="-1" shape="800.00,-500.00 800.00,-500.00 500.00,-500.00">
        <lane id="eDJ10J6_0" index="0" speed="13.89" length="286.40" shape="800.00,-492.00 513.60,-492.00"/>
        <lane id="eDJ10J6_1" index="1" speed="13.89" length="286.40" shape="800.00,-495.20 513.60,-495.20"/>
        <lane id="eDJ10J6_2" index="2" speed="13.89" length="286.40" shape="800.00,-498.40 513.60,-498.40"/>
    </edge>
    <edge id="eDJ1J1" from="DJ1" to="J1" priority="-1">
        <lane id="eDJ1J1_0" index="0" speed="13.89" length="286.40" shape="-508.00,300.00 -508.00,13.60"/>
        <lane id="eDJ1J1_1" index="1" speed="13.89" length="286.40" shape="-504.80,300.00 -504.80,13.60"/>
        <lane id="eDJ1J1_2" index="2" speed="13.89" length="286.40" shape="-501.60,300.00 -501.60,13.60"/>
    </edge>
    <edge id="eDJ2J2" from="DJ2" to="J2" priority="-1">
        <lane id="eDJ2J2_0" index="0" speed="13.89" length="286.40" shape="-8.00,300.00 -8.00,13.60"/>
        <lane id="eDJ2J2_1" index="1" speed="13.89" length="286.40" shape="-4.80,300.00 -4.80,13.60"/>
        <lane id="eDJ2J2_2" index="2" speed="13.89" length="286.40" shape="-1.60,300.00 -1.60,13.60"/>
    </edge>
    <edge id="eDJ3J3" from="DJ3" to="J3" priority="-1">
        <lane id="eDJ3J3_0" index="0" speed="13.89" length="286.40" shape="492.00,300.00 492.00,13.60"/>
        <lane id="eDJ3J3_1" index="1" speed="13.89" length="286.40" shape="495.20,300.00 495.20,13.60"/>
        <lane id="eDJ3J3_2" index="2" speed="13.89" length="286.40" shape="498.40,300.00 498.40,13.60"/>
    </edge>
    <edge id="eDJ4J4" from="DJ4" to="J4" priority="-1">
        <lane id="eDJ4J4_0" index="0" speed="13.89" length="286.40" shape="-492.00,-800.00 -492.00,-513.60"/>
        <lane id="eDJ4J4_1" index="1" speed="13.89" length="286.40" shape="-495.20,-800.00 -495.20,-513.60"/>
        <lane id="eDJ4J4_2" index="2" speed="13.89" length="286.40" shape="-498.40,-800.00 -498.40,-513.60"/>
    </edge>
    <edge id="eDJ5J5" from="DJ5" to="J5" priority="-1">
        <lane id="eDJ5J5_0" index="0" speed="13.89" length="286.40" shape="8.00,-800.00 8.00,-513.60"/>
        <lane id="eDJ5J5_1" index="1" speed="13.89" length="286.40" shape="4.80,-800.00 4.80,-513.60"/>
        <lane id="eDJ5J5_2" index="2" speed="13.89" length="286.40" shape="1.60,-800.00 1.60,-513.60"/>
    </edge>
    <edge id="eDJ6J6" from="DJ6" to="J6" priority="-1">
        <lane id="eDJ6J6_0" index="0" speed="13.89" length="286.40" shape="508.00,-800.00 508.00,-513.60"/>
        <lane id="eDJ6J6_1" index="1" speed="13.89" length="286.40" shape="504.80,-800.00 504.80,-513.60"/>
        <lane id="eDJ6J6_2" index="2" speed="13.89" length="286.40" shape="501.60,-800.00 501.60,-513.60"/>
    </edge>
    <edge id="eDJ7J1" from="DJ7" to="J1" priority="-1">
        <lane id="eDJ7J1_0" index="0" speed="13.89" length="286.40" shape="-800.00,-8.00 -513.60,-8.00"/>
        <lane id="eDJ7J1_1" index="1" speed="13.89" length="286.40" shape="-800.00,-4.80 -513.60,-4.80"/>
        <lane id="eDJ7J1_2" index="2" speed="13.89" length="286.40" shape="-800.00,-1.60 -513.60,-1.60"/>
    </edge>
    <edge id="eDJ8J3" from="DJ8" to="J3" priority="-1">
        <lane id="eDJ8J3_0" index="0" speed="13.89" length="286.40" shape="800.00,8.00 513.60,8.00"/>
        <lane id="eDJ8J3_1" index="1" speed="13.89" length="286.40" shape="800.00,4.80 513.60,4.80"/>
        <lane id="eDJ8J3_2" index="2" speed="13.89" length="286.40" shape="800.00,1.60 513.60,1.60"/>
    </edge>
    <edge id="eDJ9J4" from="DJ9" to="J4" priority="-1">
        <lane id="eDJ9J4_0" index="0" speed="13.89" length="286.40" shape="-800.00,-508.00 -513.60,-508.00"/>
        <lane id="eDJ9J4_1" index="1" speed="13.89" length="286.40" shape="-800.00,-504.80 -513.60,-504.80"/>
        <lane id="eDJ9J4_2" index="2" speed="13.89" length="286.40" shape="-800.00,-501.60 -513.60,-501.60"/>
    </edge>
    <edge id="eJ1DJ1" from="J1" to="DJ1" priority="-1">
        <lane id="eJ1DJ1_0" index="0" speed="13.89" length="286.40" shape="-492.00,13.60 -492.00,300.00"/>
        <lane id="eJ1DJ1_1" index="1" speed="13.89" length="286.40" shape="-495.20,13.60 -495.20,300.00"/>
        <lane id="eJ1DJ1_2" index="2" speed="13.89" length="286.40" shape="-498.40,13.60 -498.40,300.00"/>
    </edge>
    <edge id="eJ1DJ7" from="J1" to="DJ7" priority="-1">
        <lane id="eJ1DJ7_0" index="0" speed="13.89" length="286.40" shape="-513.60,8.00 -800.00,8.00"/>
        <lane id="eJ1DJ7_1" index="1" speed="13.89" length="286.40" shape="-513.60,4.80 -800.00,4.80"/>
        <lane id="eJ1DJ7_2" index="2" speed="13.89" length="286.40" shape="-513.60,1.60 -800.00,1.60"/>
    </edge>
    <edge id="eJ1J2" from="J1" to="J2" priority="-1">
        <lane id="eJ1J2_0" index="0" speed="13.89" length="472.80" shape="-486.40,-8.00 -13.60,-8.00"/>
        <lane id="eJ1J2_1" index="1" speed="13.89" length="472.80" shape="-486.40,-4.80 -13.60,-4.80"/>
        <lane id="eJ1J2_2" index="2" speed="13.89" length="472.80" shape="-486.40,-1.60 -13.60,-1.60"/>
    </edge>
    <edge id="eJ1J4" from="J1" to="J4" priority="-1">
        <lane id="eJ1J4_0" index="0" speed="13.89" length="472.80" shape="-508.00,-13.60 -508.00,-486.40"/>
        <lane id="eJ1J4_1" index="1" speed="13.89" length="472.80" shape="-504.80,-13.60 -504.80,-486.40"/>
        <lane id="eJ1J4_2" index="2" speed="13.89" length="472.80" shape="-501.60,-13.60 -501.60,-486.40"/>
    </edge>
    <edge id="eJ2DJ2" from="J2" to="DJ2" priority="-1">
        <lane id="eJ2DJ2_0" index="0" speed="13.89" length="286.40" shape="8.00,13.60 8.00,300.00"/>
        <lane id="eJ2DJ2_1" index="1" speed="13.89" length="286.40" shape="4.80,13.60 4.80,300.00"/>
        <lane id="eJ2DJ2_2" index="2" speed="13.89" length="286.40" shape="1.60,13.60 1.60,300.00"/>
    </edge>
    <edge id="eJ2J1" from="J2" to="J1" priority="-1" shape="0.00,0.00 -100.00,0.00 -500.00,0.00">
        <lane id="eJ2J1_0" index="0" speed="13.89" length="472.80" shape="-13.60,8.00 -100.00,8.00 -486.40,8.00"/>
        <lane id="eJ2J1_1" index="1" speed="13.89" length="472.80" shape="-13.60,4.80 -100.00,4.80 -486.40,4.80"/>
        <lane id="eJ2J1_2" index="2" speed="13.89" length="472.80" shape="-13.60,1.60 -100.00,1.60 -486.40,1.60"/>
    </edge>
    <edge id="eJ2J3" from="J2" to="J3" priority="-1">
        <lane id="eJ2J3_0" index="0" speed="13.89" length="472.80" shape="13.60,-8.00 486.40,-8.00"/>
        <lane id="eJ2J3_1" index="1" speed="13.89" length="472.80" shape="13.60,-4.80 486.40,-4.80"/>
        <lane id="eJ2J3_2" index="2" speed="13.89" length="472.80" shape="13.60,-1.60 486.40,-1.60"/>
    </edge>
    <edge id="eJ2J5" from="J2" to="J5" priority="-1">
        <lane id="eJ2J5_0" index="0" speed="13.89" length="472.80" shape="-8.00,-13.60 -8.00,-486.40"/>
        <lane id="eJ2J5_1" index="1" speed="13.89" length="472.80" shape="-4.80,-13.60 -4.80,-486.40"/>
        <lane id="eJ2J5_2" index="2" speed="13.89" length="472.80" shape="-1.60,-13.60 -1.60,-486.40"/>
    </edge>
    <edge id="eJ3DJ3" from="J3" to="DJ3" priority="-1">
        <lane id="eJ3DJ3_0" index="0" speed="13.89" length="286.40" shape="508.00,13.60 508.00,300.00"/>
        <lane id="eJ3DJ3_1" index="1" speed="13.89" length="286.40" shape="504.80,13.60 504.80,300.00"/>
        <lane id="eJ3DJ3_2" index="2" speed="13.89" length="286.40" shape="501.60,13.60 501.60,300.00"/>
    </edge>
    <edge id="eJ3DJ8" from="J3" to="DJ8" priority="-1">
        <lane id="eJ3DJ8_0" index="0" speed="13.89" length="286.40" shape="513.60,-8.00 800.00,-8.00"/>
        <lane id="eJ3DJ8_1" index="1" speed="13.89" length="286.40" shape="513.60,-4.80 800.00,-4.80"/>
        <lane id="eJ3DJ8_2" index="2" speed="13.89" length="286.40" shape="513.60,-1.60 800.00,-1.60"/>
    </edge>
    <edge id="eJ3J2" from="J3" to="J2" priority="-1">
        <lane id="eJ3J2_0" index="0" speed="13.89" length="472.80" shape="486.40,8.00 13.60,8.00"/>
        <lane id="eJ3J2_1" index="1" speed="13.89" length="472.80" shape="486.40,4.80 13.60,4.80"/>
        <lane id="eJ3J2_2" index="2" speed="13.89" length="472.80" shape="486.40,1.60 13.60,1.60"/>
    </edge>
    <edge id="eJ3J6" from="J3" to="J6" priority="-1">
        <lane id="eJ3J6_0" index="0" speed="13.89" length="472.80" shape="492.00,-13.60 492.00,-486.40"/>
        <lane id="eJ3J6_1" index="1" speed="13.89" length="472.80" shape="495.20,-13.60 495.20,-486.40"/>
        <lane id="eJ3J6_2" index="2" speed="13.89" length="472.80" shape="498.40,-13.60 498.40,-486.40"/>
    </edge>
    <edge id="eJ4DJ4" from="J4" to="DJ4" priority="-1">
        <lane id="eJ4DJ4_0" index="0" speed="13.89" length="286.40" shape="-508.00,-513.60 -508.00,-800.00"/>
        <lane id="eJ4DJ4_1" index="1" speed="13.89" length="286.40" shape="-504.80,-513.60 -504.80,-800.00"/>
        <lane id="eJ4DJ4_2" index="2" speed="13.89" length="286.40" shape="-501.60,-513.60 -501.60,-800.00"/>
    </edge>
    <edge id="eJ4DJ9" from="J4" to="DJ9" priority="-1">
        <lane id="eJ4DJ9_0" index="0" speed="13.89" length="286.40" shape="-513.60,-492.00 -800.00,-492.00"/>
        <lane id="eJ4DJ9_1" index="1" speed="13.89" length="286.40" shape="-513.60,-495.20 -800.00,-495.20"/>
        <lane id="eJ4DJ9_2" index="2" speed="13.89" length="286.40" shape="-513.60,-498.40 -800.00,-498.40"/>
    </edge>
    <edge id="eJ4J1" from="J4" to="J1" priority="-1">
        <lane id="eJ4J1_0" index="0" speed="13.89" length="472.80" shape="-492.00,-486.40 -492.00,-13.60"/>
        <lane id="eJ4J1_1" index="1" speed="13.89" length="472.80" shape="-495.20,-486.40 -495.20,-13.60"/>
        <lane id="eJ4J1_2" index="2" speed="13.89" length="472.80" shape="-498.40,-486.40 -498.40,-13.60"/>
    </edge>
    <edge id="eJ4J5" from="J4" to="J5" priority="-1">
        <lane id="eJ4J5_0" index="0" speed="13.89" length="472.80" shape="-486.40,-508.00 -13.60,-508.00"/>
        <lane id="eJ4J5_1" index="1" speed="13.89" length="472.80" shape="-486.40,-504.80 -13.60,-504.80"/>
        <lane id="eJ4J5_2" index="2" speed="13.89" length="472.80" shape="-486.40,-501.60 -13.60,-501.60"/>
    </edge>
    <edge id="eJ5DJ5" from="J5" to="DJ5" priority="-1">
        <lane id="eJ5DJ5_0" index="0" speed="13.89" length="286.40" shape="-8.00,-513.60 -8.00,-800.00"/>
        <lane id="eJ5DJ5_1" index="1" speed="13.89" length="286.40" shape="-4.80,-513.60 -4.80,-800.00"/>
        <lane id="eJ5DJ5_2" index="2" speed="13.89" length="286.40" shape="-1.60,-513.60 -1.60,-800.00"/>
    </edge>
    <edge id="eJ5J2" from="J5" to="J2" priority="-1">
        <lane id="eJ5J2_0" index="0" speed="13.89" length="472.80" shape="8.00,-486.40 8.00,-13.60"/>
        <lane id="eJ5J2_1" index="1" speed="13.89" length="472.80" shape="4.80,-486.40 4.80,-13.60"/>
        <lane id="eJ5J2_2" index="2" speed="13.89" length="472.80" shape="1.60,-486.40 1.60,-13.60"/>
    </edge>
    <edge id="eJ5J4" from="J5" to="J4" priority="-1">
        <lane id="eJ5J4_0" index="0" speed="13.89" length="472.80" shape="-13.60,-492.00 -486.40,-492.00"/>
        <lane id="eJ5J4_1" index="1" speed="13.89" length="472.80" shape="-13.60,-495.20 -486.40,-495.20"/>
        <lane id="eJ5J4_2" index="2" speed="13.89" length="472.80" shape="-13.60,-498.40 -486.40,-498.40"/>
    </edge>
    <edge id="eJ5J6" from="J5" to="J6" priority="-1">
        <lane id="eJ5J6_0" index="0" speed="13.89" length="472.80" shape="13.60,-508.00 486.40,-508.00"/>