<flowdefs>

	<flow id="0" from="gneE0" begin="0" end="1" number="100"/>
	<flow id="1" from="gneE10" begin="0" end="1" number="100"/>
	<flow id="2" from="gneE2" begin="0" end="1" number="100"/>
	<flow id="3" from="gneE7" begin="0" end="1" number="100"/>

</flowdefs>