<?xml version="1.0" encoding="UTF-8"?>

<!-- generated on 12/07/20 18:29:07 by Eclipse SUMO netedit Version 1.3.1
<configuration xmlns:xsi="http://www.w3.org/2001/XMLSchema-instance" xsi:noNamespaceSchemaLocation="http://sumo.dlr.de/xsd/netconvertConfiguration.xsd">

    <input>
        <sumo-net-file value="C:\Users\10539\Documents\GitHub\RL_experiments\rl_experiment\4RL-test\simple6nodes.net.xml"/>
    </input>

    <output>
        <output-file value="C:\Users\10539\Documents\GitHub\RL_experiments\rl_experiment\4RL-test\simple6nodes.net.xml"/>
    </output>

    <processing>
        <geometry.max-grade.fix value="false"/>
        <offset.disable-normalization value="true"/>
        <opposites.guess.fix-lengths value="true"/>
        <lefthand value="false"/>
    </processing>

    <junctions>
        <no-turnarounds value="true"/>
        <junctions.corner-detail value="5"/>
        <junctions.limit-turn-speed value="5.5"/>
        <rectangular-lane-cut value="false"/>
    </junctions>

    <pedestrian>
        <walkingareas value="false"/>
    </pedestrian>

</configuration>
-->

<net version="1.3" junctionCornerDetail="5" limitTurnSpeed="5.50" xmlns:xsi="http://www.w3.org/2001/XMLSchema-instance" xsi:noNamespaceSchemaLocation="http://sumo.dlr.de/xsd/net_file.xsd">

    <location netOffset="0.00,0.00" convBoundary="-800.00,-800.00,800.00,300.00" origBoundary="-10000000000.00,-10000000000.00,10000000000.00,10000000000.00" projParameter="!"/>

    <edge id=":DJ10_0" function="internal">
        <lane id=":DJ10_0_0" index="0" speed="7.00" length="14.02" shape="800.00,-508.00 806.00,-504.00 808.00,-500.00 806.00,-496.00 800.00,-492.00"/>
        <lane id=":DJ10_0_1" index="1" speed="5.58" length="14.02" shape="800.00,-504.80 803.60,-502.40 804.80,-500.00 803.60,-497.60 800.00,-495.20"/>
        <lane id=":DJ10_0_2" index="2" speed="3.65" length="14.02" shape="800.00,-501.60 801.20,-500.80 801.60,-500.00 801.20,-499.20 800.00,-498.40"/>
    </edge>
    <edge id=":J1_0" function="internal">
        <lane id=":J1_0_0" index="0" speed="6.51" length="9.03" shape="-508.00,13.60 -508.35,11.15 -509.40,9.40 -511.15,8.35 -513.60,8.00"/>
    </edge>
    <edge id=":J1_1" function="internal">
        <lane id=":J1_1_0" index="0" speed="13.89" length="27.20" shape="-504.80,13.60 -504.80,-13.60"/>
        <lane id=":J1_1_1" index="1" speed="13.89" length="27.20" shape="-501.60,13.60 -501.60,-13.60"/>
    </edge>
    <edge id=":J1_3" function="internal">
        <lane id=":J1_3_0" index="0" speed="6.51" length="9.03" shape="-486.40,8.00 -488.85,8.35 -490.60,9.40 -491.65,11.15 -492.00,13.60"/>
    </edge>
    <edge id=":J1_4" function="internal">
        <lane id=":J1_4_0" index="0" speed="13.89" length="27.20" shape="-486.40,4.80 -513.60,4.80"/>
        <lane id=":J1_4_1" index="1" speed="13.89" length="27.20" shape="-486.40,1.60 -513.60,1.60"/>
    </edge>
    <edge id=":J1_6" function="internal">
        <lane id=":J1_6_0" index="0" speed="6.51" length="9.03" shape="-492.00,-13.60 -491.65,-11.15 -490.60,-9.40 -488.85,-8.35 -486.40,-8.00"/>
    </edge>
    <edge id=":J1_7" function="internal">
        <lane id=":J1_7_0" index="0" speed="13.89" length="27.20" shape="-495.20,-13.60 -495.20,13.60"/>
        <lane id=":J1_7_1" index="1" speed="13.89" length="27.20" shape="-498.40,-13.60 -498.40,13.60"/>
    </edge>
    <edge id=":J1_9" function="internal">
        <lane id=":J1_9_0" index="0" speed="6.51" length="9.03" shape="-513.60,-8.00 -511.15,-8.35 -509.40,-9.40 -508.35,-11.15 -508.00,-13.60"/>
    </edge>
    <edge id=":J1_10" function="internal">
        <lane id=":J1_10_0" index="0" speed="13.89" length="27.20" shape="-513.60,-4.80 -486.40,-4.80"/>
        <lane id=":J1_10_1" index="1" speed="13.89" length="27.20" shape="-513.60,-1.60 -486.40,-1.60"/>
    </edge>
    <edge id=":J2_0" function="internal">
        <lane id=":J2_0_0" index="0" speed="6.51" length="9.03" shape="-8.00,13.60 -8.35,11.15 -9.40,9.40 -11.15,8.35 -13.60,8.00"/>
    </edge>
    <edge id=":J2_1" function="internal">
        <lane id=":J2_1_0" index="0" speed="13.89" length="27.20" shape="-4.80,13.60 -4.80,-13.60"/>
        <lane id=":J2_1_1" index="1" speed="13.89" length="27.20" shape="-1.60,13.60 -1.60,-13.60"/>
    </edge>
    <edge id=":J2_3" function="internal">
        <lane id=":J2_3_0" index="0" speed="6.51" length="9.03" shape="13.60,8.00 11.15,8.35 9.40,9.40 8.35,11.15 8.00,13.60"/>
    </edge>
    <edge id=":J2_4" function="internal">
        <lane id=":J2_4_0" index="0" speed="13.89" length="27.20" shape="13.60,4.80 -13.60,4.80"/>
        <lane id=":J2_4_1" index="1" speed="13.89" length="27.20" shape="13.60,1.60 -13.60,1.60"/>
    </edge>
    <edge id=":J2_6" function="internal">
        <lane id=":J2_6_0" index="0" speed="6.51" length="9.03" shape="8.00,-13.60 8.35,-11.15 9.40,-9.40 11.15,-8.35 13.60,-8.00"/>
    </edge>
    <edge id=":J2_7" function="internal">
        <lane id=":J2_7_0" index="0" speed="13.89" length="27.20" shape="4.80,-13.60 4.80,13.60"/>
        <lane id=":J2_7_1" index="1" speed="13.89" length="27.20" shape="1.60,-13.60 1.60,13.60"/>
    </edge>
    <edge id=":J2_9" function="internal">
        <lane id=":J2_9_0" index="0" speed="6.51" length="9.03" shape="-13.60,-8.00 -11.15,-8.35 -9.40,-9.40 -8.35,-11.15 -8.00,-13.60"/>
    </edge>
    <edge id=":J2_10" function="internal">
        <lane id=":J2_10_0" index="0" speed="13.89" length="27.20" shape="-13.60,-4.80 13.60,-4.80"/>
        <lane id=":J2_10_1" index="1" speed="13.89" length="27.20" shape="-13.60,-1.60 13.60,-1.60"/>
    </edge>
    <edge id=":J3_0" function="internal">
        <lane id=":J3_0_0" index="0" speed="6.51" length="9.03" shape="492.00,13.60 491.65,11.15 490.60,9.40 488.85,8.35 486.40,8.00"/>
    </edge>
    <edge id=":J3_1" function="internal">
        <lane id=":J3_1_0" index="0" speed="13.89" length="27.20" shape="495.20,13.60 495.20,-13.60"/>
        <lane id=":J3_1_1" index="1" speed="13.89" length="27.20" shape="498.40,13.60 498.40,-13.60"/>
    </edge>
    <edge id=":J3_3" function="internal">
        <lane id=":J3_3_0" index="0" speed="6.51" length="9.03" shape="513.60,8.00 511.15,8.35 509.40,9.40 508.35,11.15 508.00,13.60"/>
    </edge>
    <edge id=":J3_4" function="internal">
        <lane id=":J3_4_0" index="0" speed="13.89" length="27.20" shape="513.60,4.80 486.40,4.80"/>
        <lane id=":J3_4_1" index="1" speed="13.89" length="27.20" shape="513.60,1.60 486.40,1.60"/>
    </edge>
    <edge id=":J3_6" function="internal">
        <lane id=":J3_6_0" index="0" speed="6.51" length="9.03" shape="508.00,-13.60 508.35,-11.15 509.40,-9.40 511.15,-8.35 513.60,-8.00"/>
    </edge>
    <edge id=":J3_7" function="internal">
        <lane id=":J3_7_0" index="0" speed="13.89" length="27.20" shape="504.80,-13.60 504.80,13.60"/>
        <lane id=":J3_7_1" index="1" speed="13.89" length="27.20" shape="501.60,-13.60 501.60,13.60"/>
    </edge>
    <edge id=":J3_9" function="internal">
        <lane id=":J3_9_0" index="0" speed="6.51" length="9.03" shape="486.40,-8.00 488.85,-8.35 490.60,-9.40 491.65,-11.15 492.00,-13.60"/>
    </edge>
    <edge id=":J3_10" function="internal">
        <lane id=":J3_10_0" index="0" speed="13.89" length="27.20" shape="486.40,-4.80 513.60,-4.80"/>
        <lane id=":J3_10_1" index="1" speed="13.89" length="27.20" shape="486.40,-1.60 513.60,-1.60"/>
    </edge>
    <edge id=":J4_0" function="internal">
        <lane id=":J4_0_0" index="0" speed="6.51" length="9.03" shape="-508.00,-486.40 -508.35,-488.85 -509.40,-490.60 -511.15,-491.65 -513.60,-492.00"/>
    </edge>
    <edge id=":J4_1" function="internal">
        <lane id=":J4_1_0" index="0" speed="13.89" length="27.20" shape="-504.80,-486.40 -504.80,-513.60"/>
        <lane id=":J4_1_1" index="1" speed="13.89" length="27.20" shape="-501.60,-486.40 -501.60,-513.60"/>
    </edge>
    <edge id=":J4_3" function="internal">
        <lane id=":J4_3_0" index="0" speed="6.51" length="9.03" shape="-486.40,-492.00 -488.85,-491.65 -490.60,-490.60 -491.65,-488.85 -492.00,-486.40"/>
    </edge>
    <edge id=":J4_4" function="internal">
        <lane id=":J4_4_0" index="0" speed="13.89" length="27.20" shape="-486.40,-495.20 -513.60,-495.20"/>
        <lane id=":J4_4_1" index="1" speed="13.89" length="27.20" shape="-486.40,-498.40 -513.60,-498.40"/>
    </edge>
    <edge id=":J4_6" function="internal">
        <lane id=":J4_6_0" index="0" speed="6.51" length="9.03" shape="-492.00,-513.60 -491.65,-511.15 -490.60,-509.40 -488.85,-508.35 -486.40,-508.00"/>
    </edge>
    <edge id=":J4_7" function="internal">
        <lane id=":J4_7_0" index="0" speed="13.89" length="27.20" shape="-495.20,-513.60 -495.20,-486.40"/>
        <lane id=":J4_7_1" index="1" speed="13.89" length="27.20" shape="-498.40,-513.60 -498.40,-486.40"/>
    </edge>
    <edge id=":J4_9" function="internal">
        <lane id=":J4_9_0" index="0" speed="6.51" length="9.03" shape="-513.60,-508.00 -511.15,-508.35 -509.40,-509.40 -508.35,-511.15 -508.00,-513.60"/>
    </edge>
    <edge id=":J4_10" function="internal">
        <lane id=":J4_10_0" index="0" speed="13.89" length="27.20" shape="-513.60,-504.80 -486.40,-504.80"/>
        <lane id=":J4_10_1" index="1" speed="13.89" length="27.20" shape="-513.60,-501.60 -486.40,-501.60"/>
    </edge>
    <edge id=":J5_0" function="internal">
        <lane id=":J5_0_0" index="0" speed="6.51" length="9.03" shape="-8.00,-486.40 -8.35,-488.85 -9.40,-490.60 -11.15,-491.65 -13.60,-492.00"/>
    </edge>
    <edge id=":J5_1" function="internal">
        <lane id=":J5_1_0" index="0" speed="13.89" length="27.20" shape="-4.80,-486.40 -4.80,-513.60"/>
        <lane id=":J5_1_1" index="1" speed="13.89" length="27.20" shape="-1.60,-486.40 -1.60,-513.60"/>
    </edge>
    <edge id=":J5_3" function="internal">
        <lane id=":J5_3_0" index="0" speed="6.51" length="9.03" shape="13.60,-492.00 11.15,-491.65 9.40,-490.60 8.35,-488.85 8.00,-486.40"/>
    </edge>
    <edge id=":J5_4" function="internal">
        <lane id=":J5_4_0" index="0" speed="13.89" length="27.20" shape="13.60,-495.20 -13.60,-495.20"/>
        <lane id=":J5_4_1" index="1" speed="13.89" length="27.20" shape="13.60,-498.40 -13.60,-498.40"/>
    </edge>
    <edge id=":J5_6" function="internal">
        <lane id=":J5_6_0" index="0" speed="6.51" length="9.03" shape="8.00,-513.60 8.35,-511.15 9.40,-509.40 11.15,-508.35 13.60,-508.00"/>
    </edge>
    <edge id=":J5_7" function="internal">
        <lane id=":J5_7_0" index="0" speed="13.89" length="27.20" shape="4.80,-513.60 4.80,-486.40"/>
        <lane id=":J5_7_1" index="1" speed="13.89" length="27.20" shape="1.60,-513.60 1.60,-486.40"/>
    </edge>
    <edge id=":J5_9" function="internal">
        <lane id=":J5_9_0" index="0" speed="6.51" length="9.03" shape="-13.60,-508.00 -11.15,-508.35 -9.40,-509.40 -8.35,-511.15 -8.00,-513.60"/>
    </edge>
    <edge id=":J5_10" function="internal">
        <lane id=":J5_10_0" index="0" speed="13.89" length="27.20" shape="-13.60,-504.80 13.60,-504.80"/>
        <lane id=":J5_10_1" index="1" speed="13.89" length="27.20" shape="-13.60,-501.60 13.60,-501.60"/>
    </edge>
    <edge id=":J6_0" function="internal">
        <lane id=":J6_0_0" index="0" speed="6.51" length="9.03" shape="492.00,-486.40 491.65,-488.85 490.60,-490.60 488.85,-491.65 486.40,-492.00"/>
    </edge>
    <edge id=":J6_1" function="internal">
        <lane id=":J6_1_0" index="0" speed="13.89" length="27.20" shape="495.20,-486.40 495.20,-513.60"/>
        <lane id=":J6_1_1" index="1" speed="13.89" length="27.20" shape="498.40,-486.40 498.40,-513.60"/>
    </edge>
    <edge id=":J6_3" function="internal">
        <lane id=":J6_3_0" index="0" speed="6.51" length="9.03" shape="513.60,-492.00 511.15,-491.65 509.40,-490.60 508.35,-488.85 508.00,-486.40"/>
    </edge>
    <edge id=":J6_4" function="internal">
        <lane id=":J6_4_0" index="0" speed="13.89" length="27.20" shape="513.60,-495.20 486.40,-495.20"/>
        <lane id=":J6_4_1" index="1" speed="13.89" length="27.20" shape="513.60,-498.40 486.40,-498.40"/>
    </edge>
    <edge id=":J6_6" function="internal">
        <lane id=":J6_6_0" index="0" speed="6.51" length="9.03" shape="508.00,-513.60 508.35,-511.15 509.40,-509.40 511.15,-508.35 513.60,-508.00"/>
    </edge>
    <edge id=":J6_7" function="internal">
        <lane id=":J6_7_0" index="0" speed="13.89" length="27.20" shape="504.80,-513.60 504.80,-486.40"/>
        <lane id=":J6_7_1" index="1" speed="13.89" length="27.20" shape="501.60,-513.60 501.60,-486.40"/>
    </edge>
    <edge id=":J6_9" function="internal">
        <lane id=":J6_9_0" index="0" speed="6.51" length="9.03" shape="486.40,-508.00 488.85,-508.35 490.60,-509.40 491.65,-511.15 492.00,-513.60"/>
    </edge>
    <edge id=":J6_10" function="internal">
        <lane id=":J6_10_0" index="0" speed="13.89" length="27.20" shape="486.40,-504.80 513.60,-504.80"/>
        <lane id=":J6_10_1" index="1" speed="13.89" length="27.20" shape="486.40,-501.60 513.60,-501.60"/>
    </edge>

    <edge id="eDJ10J6" from="DJ10" to="J6" priority="-1">
        <lane id="eDJ10J6_0" index="0" speed="13.89" length="286.40" shape="800.00,-492.00 513.60,-492.00"/>
        <lane id="eDJ10J6_1" index="1" speed="13.89" length="286.40" shape="800.00,-495.20 513.60,-495.20"/>
        <lane id="eDJ10J6_2" index="2" speed="13.89" length="286.40" shape="800.00,-498.40 513.60,-498.40"/>
    </edge>
    <edge id="eDJ1J1" from="DJ1" to="J1" priority="-1">
        <lane id="eDJ1J1_0" index="0" speed="13.89" length="286.40" shape="-508.00,300.00 -508.00,13.60"/>
        <lane id="eDJ1J1_1" index="1" speed="13.89" length="286.40" shape="-504.80,300.00 -504.80,13.60"/>
        <lane id="eDJ1J1_2" index="2" speed="13.89" length="286.40" shape="-501.60,300.00 -501.60,13.60"/>
    </edge>
    <edge id="eDJ2J2" from="DJ2" to="J2" priority="-1">
        <lane id="eDJ2J2_0" index="0" speed="13.89" length="286.40" shape="-8.00,300.00 -8.00,13.60"/>
        <lane id="eDJ2J2_1" index="1" speed="13.89" length="286.40" shape="-4.80,300.00 -4.80,13.60"/>
        <lane id="eDJ2J2_2" index="2" speed="13.89" length="286.40" shape="-1.60,300.00 -1.60,13.60"/>
    </edge>
    <edge id="eDJ3J3" from="DJ3" to="J3" priority="-1">
        <lane id="eDJ3J3_0" index="0" speed="13.89" length="286.40" shape="492.00,300.00 492.00,13.60"/>
        <lane id="eDJ3J3_1" index="1" speed="13.89" length="286.40" shape="495.20,300.00 495.20,13.60"/>
        <lane id="eDJ3J3_2" index="2" speed="13.89" length="286.40" shape="498.40,300.00 498.40,13.60"/>
    </edge>
    <edge id="eDJ4J4" from="DJ4" to="J4" priority="-1">
        <lane id="eDJ4J4_0" index="0" speed="13.89" length="286.40" shape="-492.00,-800.00 -492.00,-513.60"/>
        <lane id="eDJ4J4_1" index="1" speed="13.89" length="286.40" shape="-495.20,-800.00 -495.20,-513.60"/>
        <lane id="eDJ4J4_2" index="2" speed="13.89" length="286.40" shape="-498.40,-800.00 -498.40,-513.60"/>
    </edge>
    <edge id="eDJ5J5" from="DJ5" to="J5" priority="-1">
        <lane id="eDJ5J5_0" index="0" speed="13.89" length="286.40" shape="8.00,-800.00 8.00,-513.60"/>
        <lane id="eDJ5J5_1" index="1" speed="13.89" length="286.40" shape="4.80,-800.00 4.80,-513.60"/>
        <lane id="eDJ5J5_2" index="2" speed="13.89" length="286.40" shape="1.60,-800.00 1.60,-513.60"/>
    </edge>
    <edge id="eDJ6J6" from="DJ6" to="J6" priority="-1">
        <lane id="eDJ6J6_0" index="0" speed="13.89" length="286.40" shape="508.00,-800.00 508.00,-513.60"/>
        <lane id="eDJ6J6_1" index="1" speed="13.89" length="286.40" shape="504.80,-800.00 504.80,-513.60"/>
        <lane id="eDJ6J6_2" index="2" speed="13.89" length="286.40" shape="501.60,-800.00 501.60,-513.60"/>
    </edge>
    <edge id="eDJ7J1" from="DJ7" to="J1" priority="-1">
        <lane id="eDJ7J1_0" index="0" speed="13.89" length="286.40" shape="-800.00,-8.00 -513.60,-8.00"/>
        <lane id="eDJ7J1_1" index="1" speed="13.89" length="286.40" shape="-800.00,-4.80 -513.60,-4.80"/>
        <lane id="eDJ7J1_2" index="2" speed="13.89" length="286.40" shape="-800.00,-1.60 -513.60,-1.60"/>
    </edge>
    <edge id="eDJ8J3" from="DJ8" to="J3" priority="-1">
        <lane id="eDJ8J3_0" index="0" speed="13.89" length="286.40" shape="800.00,8.00 513.60,8.00"/>
        <lane id="eDJ8J3_1" index="1" speed="13.89" length="286.40" shape="800.00,4.80 513.60,4.80"/>
        <lane id="eDJ8J3_2" index="2" speed="13.89" length="286.40" shape="800.00,1.60 513.60,1.60"/>
    </edge>
    <edge id="eDJ9J4" from="DJ9" to="J4" priority="-1">
        <lane id="eDJ9J4_0" index="0" speed="13.89" length="286.40" shape="-800.00,-508.00 -513.60,-508.00"/>
        <lane id="eDJ9J4_1" index="1" speed="13.89" length="286.40" shape="-800.00,-504.80 -513.60,-504.80"/>
        <lane id="eDJ9J4_2" index="2" speed="13.89" length="286.40" shape="-800.00,-501.60 -513.60,-501.60"/>
    </edge>
    <edge id="eJ1DJ1" from="J1" to="DJ1" priority="-1">
        <lane id="eJ1DJ1_0" index="0" speed="13.89" length="286.40" shape="-492.00,13.60 -492.00,300.00"/>
        <lane id="eJ1DJ1_1" index="1" speed="13.89" length="286.40" shape="-495.20,13.60 -495.20,300.00"/>
        <lane id="eJ1DJ1_2" index="2" speed="13.89" length="286.40" shape="-498.40,13.60 -498.40,300.00"/>
    </edge>
    <edge id="eJ1DJ7" from="J1" to="DJ7" priority="-1">
        <lane id="eJ1DJ7_0" index="0" speed="13.89" length="286.40" shape="-513.60,8.00 -800.00,8.00"/>
        <lane id="eJ1DJ7_1" index="1" speed="13.89" length="286.40" shape="-513.60,4.80 -800.00,4.80"/>
        <lane id="eJ1DJ7_2" index="2" speed="13.89" length="286.40" shape="-513.60,1.60 -800.00,1.60"/>
    </edge>
    <edge id="eJ1J2" from="J1" to="J2" priority="-1">
        <lane id="eJ1J2_0" index="0" speed="13.89" length="472.80" shape="-486.40,-8.00 -13.60,-8.00"/>
        <lane id="eJ1J2_1" index="1" speed="13.89" length="472.80" shape="-486.40,-4.80 -13.60,-4.80"/>
        <lane id="eJ1J2_2" index="2" speed="13.89" length="472.80" shape="-486.40,-1.60 -13.60,-1.60"/>
    </edge>
    <edge id="eJ1J4" from="J1" to="J4" priority="-1">
        <lane id="eJ1J4_0" index="0" speed="13.89" length="472.80" shape="-508.00,-13.60 -508.00,-486.40"/>
        <lane id="eJ1J4_1" index="1" speed="13.89" length="472.80" shape="-504.80,-13.60 -504.80,-486.40"/>
        <lane id="eJ1J4_2" index="2" speed="13.89" length="472.80" shape="-501.60,-13.60 -501.60,-486.40"/>
    </edge>
    <edge id="eJ2DJ2" from="J2" to="DJ2" priority="-1">
        <lane id="eJ2DJ2_0" index="0" speed="13.89" length="286.40" shape="8.00,13.60 8.00,300.00"/>
        <lane id="eJ2DJ2_1" index="1" speed="13.89" length="286.40" shape="4.80,13.60 4.80,300.00"/>
        <lane id="eJ2DJ2_2" index="2" speed="13.89" length="286.40" shape="1.60,13.60 1.60,300.00"/>
    </edge>
    <edge id="eJ2J1" from="J2" to="J1" priority="-1" shape="0.00,0.00 -100.00,0.00 -500.00,0.00">
        <lane id="eJ2J1_0" index="0" speed="13.89" length="472.80" shape="-13.60,8.00 -100.00,8.00 -486.40,8.00"/>
        <lane id="eJ2J1_1" index="1" speed="13.89" length="472.80" shape="-13.60,4.80 -100.00,4.80 -486.40,4.80"/>
        <lane id="eJ2J1_2" index="2" speed="13.89" length="472.80" shape="-13.60,1.60 -100.00,1.60 -486.40,1.60"/>
    </edge>
    <edge id="eJ2J3" from="J2" to="J3" priority="-1">
        <lane id="eJ2J3_0" index="0" speed="13.89" length="472.80" shape="13.60,-8.00 486.40,-8.00"/>
        <lane id="eJ2J3_1" index="1" speed="13.89" length="472.80" shape="13.60,-4.80 486.40,-4.80"/>
        <lane id="eJ2J3_2" index="2" speed="13.89" length="472.80" shape="13.60,-1.60 486.40,-1.60"/>
    </edge>
    <edge id="eJ2J5" from="J2" to="J5" priority="-1">
        <lane id="eJ2J5_0" index="0" speed="13.89" length="472.80" shape="-8.00,-13.60 -8.00,-486.40"/>
        <lane id="eJ2J5_1" index="1" speed="13.89" length="472.80" shape="-4.80,-13.60 -4.80,-486.40"/>
        <lane id="eJ2J5_2" index="2" speed="13.89" length="472.80" shape="-1.60,-13.60 -1.60,-486.40"/>
    </edge>
    <edge id="eJ3DJ3" from="J3" to="DJ3" priority="-1">
        <lane id="eJ3DJ3_0" index="0" speed="13.89" length="286.40" shape="508.00,13.60 508.00,300.00"/>
        <lane id="eJ3DJ3_1" index="1" speed="13.89" length="286.40" shape="504.80,13.60 504.80,300.00"/>
        <lane id="eJ3DJ3_2" index="2" speed="13.89" length="286.40" shape="501.60,13.60 501.60,300.00"/>
    </edge>
    <edge id="eJ3DJ8" from="J3" to="DJ8" priority="-1">
        <lane id="eJ3DJ8_0" index="0" speed="13.89" length="286.40" shape="513.60,-8.00 800.00,-8.00"/>
        <lane id="eJ3DJ8_1" index="1" speed="13.89" length="286.40" shape="513.60,-4.80 800.00,-4.80"/>
        <lane id="eJ3DJ8_2" index="2" speed="13.89" length="286.40" shape="513.60,-1.60 800.00,-1.60"/>
    </edge>
    <edge id="eJ3J2" from="J3" to="J2" priority="-1">
        <lane id="eJ3J2_0" index="0" speed="13.89" length="472.80" shape="486.40,8.00 13.60,8.00"/>
        <lane id="eJ3J2_1" index="1" speed="13.89" length="472.80" shape="486.40,4.80 13.60,4.80"/>
        <lane id="eJ3J2_2" index="2" speed="13.89" length="472.80" shape="486.40,1.60 13.60,1.60"/>
    </edge>
    <edge id="eJ3J6" from="J3" to="J6" priority="-1">
        <lane id="eJ3J6_0" index="0" speed="13.89" length="472.80" shape="492.00,-13.60 492.00,-486.40"/>
        <lane id="eJ3J6_1" index="1" speed="13.89" length="472.80" shape="495.20,-13.60 495.20,-486.40"/>
        <lane id="eJ3J6_2" index="2" speed="13.89" length="472.80" shape="498.40,-13.60 498.40,-486.40"/>
    </edge>
    <edge id="eJ4DJ4" from="J4" to="DJ4" priority="-1">
        <lane id="eJ4DJ4_0" index="0" speed="13.89" length="286.40" shape="-508.00,-513.60 -508.00,-800.00"/>
        <lane id="eJ4DJ4_1" index="1" speed="13.89" length="286.40" shape="-504.80,-513.60 -504.80,-800.00"/>
        <lane id="eJ4DJ4_2" index="2" speed="13.89" length="286.40" shape="-501.60,-513.60 -501.60,-800.00"/>
    </edge>
    <edge id="eJ4DJ9" from="J4" to="DJ9" priority="-1">
        <lane id="eJ4DJ9_0" index="0" speed="13.89" length="286.40" shape="-513.60,-492.00 -800.00,-492.00"/>
        <lane id="eJ4DJ9_1" index="1" speed="13.89" length="286.40" shape="-513.60,-495.20 -800.00,-495.20"/>
        <lane id="eJ4DJ9_2" index="2" speed="13.89" length="286.40" shape="-513.60,-498.40 -800.00,-498.40"/>
    </edge>
    <edge id="eJ4J1" from="J4" to="J1" priority="-1">
        <lane id="eJ4J1_0" index="0" speed="13.89" length="472.80" shape="-492.00,-486.40 -492.00,-13.60"/>
        <lane id="eJ4J1_1" index="1" speed="13.89" length="472.80" shape="-495.20,-486.40 -495.20,-13.60"/>
        <lane id="eJ4J1_2" index="2" speed="13.89" length="472.80" shape="-498.40,-486.40 -498.40,-13.60"/>
    </edge>
    <edge id="eJ4J5" from="J4" to="J5" priority="-1">
        <lane id="eJ4J5_0" index="0" speed="13.89" length="472.80" shape="-486.40,-508.00 -13.60,-508.00"/>
        <lane id="eJ4J5_1" index="1" speed="13.89" length="472.80" shape="-486.40,-504.80 -13.60,-504.80"/>
        <lane id="eJ4J5_2" index="2" speed="13.89" length="472.80" shape="-486.40,-501.60 -13.60,-501.60"/>
    </edge>
    <edge id="eJ5DJ5" from="J5" to="DJ5" priority="-1">
        <lane id="eJ5DJ5_0" index="0" speed="13.89" length="286.40" shape="-8.00,-513.60 -8.00,-800.00"/>
        <lane id="eJ5DJ5_1" index="1" speed="13.89" length="286.40" shape="-4.80,-513.60 -4.80,-800.00"/>
        <lane id="eJ5DJ5_2" index="2" speed="13.89" length="286.40" shape="-1.60,-513.60 -1.60,-800.00"/>
    </edge>
    <edge id="eJ5J2" from="J5" to="J2" priority="-1">
        <lane id="eJ5J2_0" index="0" speed="13.89" length="472.80" shape="8.00,-486.40 8.00,-13.60"/>
        <lane id="eJ5J2_1" index="1" speed="13.89" length="472.80" shape="4.80,-486.40 4.80,-13.60"/>
        <lane id="eJ5J2_2" index="2" speed="13.89" length="472.80" shape="1.60,-486.40 1.60,-13.60"/>
    </edge>
    <edge id="eJ5J4" from="J5" to="J4" priority="-1">
        <lane id="eJ5J4_0" index="0" speed="13.89" length="472.80" shape="-13.60,-492.00 -486.40,-492.00"/>
        <lane id="eJ5J4_1" index="1" speed="13.89" length="472.80" shape="-13.60,-495.20 -486.40,-495.20"/>
        <lane id="eJ5J4_2" index="2" speed="13.89" length="472.80" shape="-13.60,-498.40 -486.40,-498.40"/>
    </edge>
    <edge id="eJ5J6" from="J5" to="J6" priority="-1">
        <lane id="eJ5J6_0" index="0" speed="13.89" length="472.80" shape="13.60,-508.00 486.40,-508.00"/>
        <lane id="eJ5J6_1" index="1" speed="13.89" length="472.80" shape="13.60,-504.80 486.40,-504.80"/>
        <lane id="eJ5J6_2" index="2" speed="13.89" length="472.80" shape="13.60,-501.60 486.40,-501.60"/>
    </edge>
    <edge id="eJ6DJ10" from="J6" to="DJ10" priority="-1">
        <lane id="eJ6DJ10_0" index="0" speed="13.89" length="286.40" shape="513.60,-508.00 800.00,-508.00"/>
        <lane id="eJ6DJ10_1" index="1" speed="13.89" length="286.40" shape="513.60,-504.80 800.00,-504.80"/>
        <lane id="eJ6DJ10_2" index="2" speed="13.89" length="286.40" shape="513.60,-501.60 800.00,-501.60"/>
    </edge>
    <edge id="eJ6DJ6" from="J6" to="DJ6" priority="-1">
        <lane id="eJ6DJ6_0" index="0" speed="13.89" length="286.40" shape="492.00,-513.60 492.00,-800.00"/>
        <lane id="eJ6DJ6_1" index="1" speed="13.89" length="286.40" shape="495.20,-513.60 495.20,-800.00"/>
        <lane id="eJ6DJ6_2" index="2" speed="13.89" length="286.40" shape="498.40,-513.60 498.40,-800.00"/>
    </edge>
    <edge id="eJ6J3" from="J6" to="J3" priority="-1">
        <lane id="eJ6J3_0" index="0" speed="13.89" length="472.80" shape="508.00,-486.40 508.00,-13.60"/>
        <lane id="eJ6J3_1" index="1" speed="13.89" length="472.80" shape="504.80,-486.40 504.80,-13.60"/>
        <lane id="eJ6J3_2" index="2" speed="13.89" length="472.80" shape="501.60,-486.40 501.60,-13.60"/>
    </edge>
    <edge id="eJ6J5" from="J6" to="J5" priority="-1">
        <lane id="eJ6J5_0" index="0" speed="13.89" length="472.80" shape="486.40,-492.00 13.60,-492.00"/>
        <lane id="eJ6J5_1" index="1" speed="13.89" length="472.80" shape="486.40,-495.20 13.60,-495.20"/>
        <lane id="eJ6J5_2" index="2" speed="13.89" length="472.80" shape="486.40,-498.40 13.60,-498.40"/>
    </edge>

    <tlLogic id="J1" type="static" programID="0" offset="0">
        <phase duration="42" state="GGGGrrGGGGrr"/>
        <phase duration="3"  state="yyyyrryyyyrr"/>
        <phase duration="42" state="GrrGGGGrrGGG"/>
        <phase duration="3"  state="yrryyyyrryyy"/>
    </tlLogic>
    <tlLogic id="J2" type="static" programID="0" offset="0">
        <phase duration="42" state="GGGGrrGGGGrr"/>
        <phase duration="3"  state="yyyyrryyyyrr"/>
        <phase duration="42" state="GrrGGGGrrGGG"/>
        <phase duration="3"  state="yrryyyyrryyy"/>
    </tlLogic>
    <tlLogic id="J3" type="static" programID="0" offset="0">
        <phase duration="42" state="GGGGrrGGGGrr"/>
        <phase duration="3"  state="yyyyrryyyyrr"/>
        <phase duration="42" state="GrrGGGGrrGGG"/>
        <phase duration="3"  state="yrryyyyrryyy"/>
    </tlLogic>
    <tlLogic id="J4" type="static" programID="0" offset="0">
        <phase duration="42" state="GGGGrrGGGGrr"/>
        <phase duration="3"  state="yyyyrryyyyrr"/>
        <phase duration="42" state="GrrGGGGrrGGG"/>
        <phase duration="3"  state="yrryyyyrryyy"/>
    </tlLogic>
    <tlLogic id="J5" type="static" programID="0" offset="0">
        <phase duration="42" state="GGGGrrGGGGrr"/>
        <phase duration="3"  state="yyyyrryyyyrr"/>
        <phase duration="42" state="GrrGGGGrrGGG"/>
        <phase duration="3"  state="yrryyyyrryyy"/>
    </tlLogic>
    <tlLogic id="J6" type="static" programID="0" offset="0">
        <phase duration="42" state="GGGGrrGGGGrr"/>
        <phase duration="3"  state="yyyyrryyyyrr"/>
        <phase duration="42" state="GrrGGGGrrGGG"/>
        <phase duration="3"  state="yrryyyyrryyy"/>
    </tlLogic>

    <junction id="DJ1" type="dead_end" x="-500.00" y="300.00" incLanes="eJ1DJ1_0 eJ1DJ1_1 eJ1DJ1_2" intLanes="" shape="-500.00,300.00 -490.40,300.00 -500.00,300.00"/>
    <junction id="DJ10" type="priority" x="800.00" y="-500.00" incLanes="eJ6DJ10_0 eJ6DJ10_1 eJ6DJ10_2" intLanes=":DJ10_0_0 :DJ10_0_1 :DJ10_0_2" shape="800.00,-500.00 800.00,-509.60 800.00,-500.00">
        <request index="0" response="000" foes="000" cont="0"/>
        <request index="1" response="000" foes="000" cont="0"/>
        <request index="2" response="000" foes="000" cont="0"/>
    </junction>
    <junction id="DJ2" type="dead_end" x="0.00" y="300.00" incLanes="eJ2DJ2_0 eJ2DJ2_1 eJ2DJ2_2" intLanes="" shape="0.00,300.00 9.60,300.00 0.00,300.00"/>
    <junction id="DJ3" type="dead_end" x="500.00" y="300.00" incLanes="eJ3DJ3_0 eJ3DJ3_1 eJ3DJ3_2" intLanes="" shape="500.00,300.00 509.60,300.00 500.00,300.00"/>
    <junction id="DJ4" type="dead_end" x="-500.00" y="-800.00" incLanes="eJ4DJ4_0 eJ4DJ4_1 eJ4DJ4_2" intLanes="" shape="-500.00,-800.00 -509.60,-800.00 -500.00,-800.00"/>
    <junction id="DJ5" type="dead_end" x="0.00" y="-800.00" incLanes="eJ5DJ5_0 eJ5DJ5_1 eJ5DJ5_2" intLanes="" shape="0.00,-800.00 -9.60,-800.00 0.00,-800.00"/>
    <junction id="DJ6" type="dead_end" x="500.00" y="-800.00" incLanes="eJ6DJ6_0 eJ6DJ6_1 eJ6DJ6_2" intLanes="" shape="500.00,-800.00 490.40,-800.00 500.00,-800.00"/>
    <junction id="DJ7" type="dead_end" x="-800.00" y="0.00" incLanes="eJ1DJ7_0 eJ1DJ7_1 eJ1DJ7_2" intLanes="" shape="-800.00,0.00 -800.00,9.60 -800.00,0.00"/>
    <junction id="DJ8" type="dead_end" x="800.00" y="0.00" incLanes="eJ3DJ8_0 eJ3DJ8_1 eJ3DJ8_2" intLanes="" shape="800.00,0.00 800.00,-9.60 800.00,0.00"/>
    <junction id="DJ9" type="dead_end" x="-800.00" y="-500.00" incLanes="eJ4DJ9_0 eJ4DJ9_1 eJ4DJ9_2" intLanes="" shape="-800.00,-500.00 -800.00,-490.40 -800.00,-500.00"/>