<flowdefs>

	<flow id="0" from="eDJ7J1" begin="0" end="4800" number="5000"/>
	<flow id="1" from="eDJ1J1" begin="0" end="4800" number="5000"/>
	<flow id="2" from="eDJ2J2" begin="0" end="4800" number="5000"/>
	<flow id="3" from="eDJ3J3" begin="0" end="4800" number="5000"/>
	<flow id="4" from="eDJ8J3" begin="0" end="4800" number="5000"/>
	<flow id="5" from="eDJ10J6" begin="0" end="4800" number="5000"/>
	<flow id="6" from="eDJ6J6" begin="0" end="4800" number="5000"/>
	<flow id="7" from="eDJ9J4" begin="0" end="4800" number="5000"/>
	<flow id="8" from="eDJ5J5" begin="0" end="4800" number="5000"/>
	<flow id="9" from="eDJ4J4" begin="0" end="4800" number="5000"/>
	
	
	
	
	
	

</flowdefs>