<?xml version="1.0" encoding="UTF-8"?>

<!-- generated on 10/22/20 15:08:53 by Eclipse SUMO jtrrouter Version 1.7.0
This data file and the accompanying materials
are made available under the terms of the Eclipse Public License v2.0
which accompanies this distribution, and is available at
http://www.eclipse.org/legal/epl-v20.html
SPDX-License-Identifier: EPL-2.0
<configuration xmlns:xsi="http://www.w3.org/2001/XMLSchema-instance" xsi:noNamespaceSchemaLocation="http://sumo.dlr.de/xsd/jtrrouterConfiguration.xsd">

    <input>
        <net-file value="test.net.xml"/>
        <route-files value="test.flows.xml"/>
        <turn-ratio-files value="test.turns.xml"/>
    </input>

    <output>
        <output-file value="test.rou.xml"/>
        <write-license value="true"/>
    </output>

    <processing>
        <no-internal-links value="true"/>
        <accept-all-destinations value="true"/>
    </processing>

    <report>
        <ignore-errors value="true"/>
        <no-step-log value="true"/>
    </report>

</configuration>
-->

<routes xmlns:xsi="http://www.w3.org/2001/XMLSchema-instance" xsi:noNamespaceSchemaLocation="http://sumo.dlr.de/xsd/routes_file.xsd">
    <vehicle id="0.0" depart="0.00">
        <route edges="gneE9 gneE0 gneE4"/>
    </vehicle>
    <vehicle id="1.0" depart="0.00">
        <route edges="gneE7 gneE1 gneE8"/>
    </vehicle>
    <vehicle id="2.0" depart="0.00">
        <route edges="gneE3 gneE1 gneE8"/>
    </vehicle>
    <vehicle id="3.0" depart="0.00">
        <route edges="gneE5 gneE6"/>
    </vehicle>
    <vehicle id="0.1" depart="3.60">
        <route edges="gneE9 gneE0 gneE2"/>
    </vehicle>
    <vehicle id="1.1" depart="3.60">
        <route edges="gneE7 gneE4"/>
    </vehicle>
    <vehicle id="2.1" depart="3.60">
        <route edges="gneE3 gneE1 gneE8"/>
    </vehicle>
    <vehicle id="3.1" depart="3.60">
        <route edges="gneE5 gneE6"/>
    </vehicle>
    <vehicle id="0.2" depart="7.20">
        <route edges="gneE9 gneE0 gneE2"/>
    </vehicle>
    <vehicle id="1.2" depart="7.20">
        <route edges="gneE7 gneE2"/>
    </vehicle>
    <vehicle id="2.2" depart="7.20">
        <route edges="gneE3 gneE1 gneE8"/>
    </vehicle>
    <vehicle id="3.2" depart="7.20">
        <route edges="gneE5 gneE6"/>
    </vehicle>
    <vehicle id="0.3" depart="10.80">
        <route edges="gneE9 gneE0 gneE2"/>
    </vehicle>
    <vehicle id="1.3" depart="10.80">
        <route edges="gneE7 gneE4"/>
    </vehicle>
    <vehicle id="2.3" depart="10.80">
        <route edges="gneE3 gneE1 gneE8"/>
    </vehicle>
    <vehicle id="3.3" depart="10.80">
        <route edges="gneE5 gneE6"/>
    </vehicle>
    <vehicle id="0.4" depart="14.40">
        <route edges="gneE9 gneE0 gneE6"/>
    </vehicle>
    <vehicle id="1.4" depart="14.40">
        <route edges="gneE7 gneE2"/>
    </vehicle>
    <vehicle id="2.4" depart="14.40">
        <route edges="gneE3 gneE1 gneE8"/>
    </vehicle>
    <vehicle id="3.4" depart="14.40">
        <route edges="gneE5 gneE1 gneE8"/>
    </vehicle>
    <vehicle id="0.5" depart="18.00">
        <route edges="gneE9 gneE0 gneE2"/>
    </vehicle>
    <vehicle id="1.5" depart="18.00">
        <route edges="gneE7 gneE4"/>
    </vehicle>
    <vehicle id="2.5" depart="18.00">
        <route edges="gneE3 gneE1 gneE8"/>
    </vehicle>
    <vehicle id="3.5" depart="18.00">
        <route edges="gneE5 gneE6"/>
    </vehicle>
    <vehicle id="0.6" depart="21.60">
        <route edges="gneE9 gneE0 gneE2"/>
    </vehicle>
    <vehicle id="1.6" depart="21.60">
        <route edges="gneE7 gneE2"/>
    </vehicle>
    <vehicle id="2.6" depart="21.60">
        <route edges="gneE3 gneE6"/>
    </vehicle>
    <vehicle id="3.6" depart="21.60">
        <route edges="gneE5 gneE2"/>
    </vehicle>
    <vehicle id="0.7" depart="25.20">
        <route edges="gneE9 gneE0 gneE2"/>
    </vehicle>
    <vehicle id="1.7" depart="25.20">
        <route edges="gneE7 gneE4"/>
    </vehicle>
    <vehicle id="2.7" depart="25.20">
        <route edges="gneE3 gneE1 gneE8"/>
    </vehicle>
    <vehicle id="3.7" depart="25.20">
        <route edges="gneE5 gneE1 gneE8"/>
    </vehicle>
    <vehicle id="0.8" depart="28.80">
        <route edges="gneE9 gneE0 gneE2"/>
    </vehicle>
    <vehicle id="1.8" depart="28.80">
        <route edges="gneE7 gneE4"/>
    </vehicle>
    <vehicle id="2.8" depart="28.80">
        <route edges="gneE3 gneE6"/>
    </vehicle>
    <vehicle id="3.8" depart="28.80">
        <route edges="gneE5 gneE6"/>
    </vehicle>
    <vehicle id="0.9" depart="32.40">
        <route edges="gneE9 gneE0 gneE2"/>
    </vehicle>
    <vehicle id="1.9" depart="32.40">
        <route edges="gneE7 gneE4"/>
    </vehicle>
    <vehicle id="2.9" depart="32.40">
        <route edges="gneE3 gneE1 gneE8"/>
    </vehicle>
    <vehicle id="3.9" depart="32.40">
        <route edges="gneE5 gneE1 gneE8"/>
    </vehicle>
    <vehicle id="0.10" depart="36.00">
        <route edges="gneE9 gneE0 gneE2"/>
    </vehicle>
    <vehicle id="1.10" depart="36.00">
        <route edges="gneE7 gneE2"/>
    </vehicle>
    <vehicle id="2.10" depart="36.00">
        <route edges="gneE3 gneE1 gneE8"/>
    </vehicle>
    <vehicle id="3.10" depart="36.00">
        <route edges="gneE5 gneE1 gneE8"/>
    </vehicle>
    <vehicle id="0.11" depart="39.60">
        <route edges="gneE9 gneE0 gneE2"/>
    </vehicle>
    <vehicle id="1.11" depart="39.60">
        <route edges="gneE7 gneE2"/>
    </vehicle>
    <vehicle id="2.11" depart="39.60">
        <route edges="gneE3 gneE1 gneE8"/>
    </vehicle>
    <vehicle id="3.11" depart="39.60">
        <route edges="gneE5 gneE2"/>
    </vehicle>
    <vehicle id="0.12" depart="43.20">
        <route edges="gneE9 gneE0 gneE2"/>
    </vehicle>
    <vehicle id="1.12" depart="43.20">
        <route edges="gneE7 gneE1 gneE8"/>
    </vehicle>
    <vehicle id="2.12" depart="43.20">
        <route edges="gneE3 gneE1 gneE8"/>
    </vehicle>
    <vehicle id="3.12" depart="43.20">
        <route edges="gneE5 gneE2"/>
    </vehicle>
    <vehicle id="0.13" depart="46.80">
        <route edges="gneE9 gneE0 gneE2"/>
    </vehicle>
    <vehicle id="1.13" depart="46.80">
        <route edges="gneE7 gneE4"/>
    </vehicle>
    <vehicle id="2.13" depart="46.80">
        <route edges="gneE3 gneE1 gneE8"/>
    </vehicle>
    <vehicle id="3.13" depart="46.80">
        <route edges="gneE5 gneE6"/>
    </vehicle>
    <vehicle id="0.14" depart="50.40">
        <route edges="gneE9 gneE0 gneE2"/>
    </vehicle>
    <vehicle id="1.14" depart="50.40">
        <route edges="gneE7 gneE2"/>
    </vehicle>
    <vehicle id="2.14" depart="50.40">
        <route edges="gneE3 gneE6"/>
    </vehicle>
    <vehicle id="3.14" depart="50.40">
        <route edges="gneE5 gneE1 gneE8"/>
    </vehicle>
    <vehicle id="0.15" depart="54.00">
        <route edges="gneE9 gneE0 gneE6"/>
    </vehicle>
    <vehicle id="1.15" depart="54.00">
        <route edges="gneE7 gneE4"/>
    </vehicle>
    <vehicle id="2.15" depart="54.00">
        <route edges="gneE3 gneE6"/>
    </vehicle>
    <vehicle id="3.15" depart="54.00">
        <route edges="gneE5 gneE6"/>
    </vehicle>
    <vehicle id="0.16" depart="57.60">
        <route edges="gneE9 gneE0 gneE4"/>
    </vehicle>
    <vehicle id="1.16" depart="57.60">
        <route edges="gneE7 gneE2"/>
    </vehicle>
    <vehicle id="2.16" depart="57.60">
        <route edges="gneE3 gneE4"/>
    </vehicle>
    <vehicle id="3.16" depart="57.60">
        <route edges="gneE5 gneE6"/>
    </vehicle>
    <vehicle id="0.17" depart="61.20">
        <route edges="gneE9 gneE0 gneE2"/>
    </vehicle>
    <vehicle id="1.17" depart="61.20">
        <route edges="gneE7 gneE2"/>
    </vehicle>
    <vehicle id="2.17" depart="61.20">
        <route edges="gneE3 gneE1 gneE8"/>
    </vehicle>
    <vehicle id="3.17" depart="61.20">
        <route edges="gneE5 gneE1 gneE8"/>
    </vehicle>
    <vehicle id="0.18" depart="64.80">
        <route edges="gneE9 gneE0 gneE4"/>
    </vehicle>
    <vehicle id="1.18" depart="64.80">
        <route edges="gneE7 gneE2"/>
    </vehicle>
    <vehicle id="2.18" depart="64.80">
        <route edges="gneE3 gneE4"/>
    </vehicle>
    <vehicle id="3.18" depart="64.80">
        <route edges="gneE5 gneE1 gneE8"/>
    </vehicle>
    <vehicle id="0.19" depart="68.40">
        <route edges="gneE9 gneE0 gneE6"/>
    </vehicle>
    <vehicle id="1.19" depart="68.40">
        <route edges="gneE7 gneE2"/>
    </vehicle>
    <vehicle id="2.19" depart="68.40">
        <route edges="gneE3 gneE1 gneE8"/>
    </vehicle>
    <vehicle id="3.19" depart="68.40">
        <route edges="gneE5 gneE6"/>
    </vehicle>
    <vehicle id="0.20" depart="72.00">
        <route edges="gneE9 gneE0 gneE6"/>
    </vehicle>
    <vehicle id="1.20" depart="72.00">
        <route edges="gneE7 gneE4"/>
    </vehicle>
    <vehicle id="2.20" depart="72.00">
        <route edges="gneE3 gneE1 gneE8"/>
    </vehicle>
    <vehicle id="3.20" depart="72.00">
        <route edges="gneE5 gneE6"/>
    </vehicle>
    <vehicle id="0.21" depart="75.60">
        <route edges="gneE9 gneE0 gneE2"/>
    </vehicle>
    <vehicle id="1.21" depart="75.60">
        <route edges="gneE7 gneE4"/>
    </vehicle>
    <vehicle id="2.21" depart="75.60">
        <route edges="gneE3 gneE1 gneE8"/>
    </vehicle>
    <vehicle id="3.21" depart="75.60">
        <route edges="gneE5 gneE6"/>
    </vehicle>
    <vehicle id="0.22" depart="79.20">
        <route edges="gneE9 gneE0 gneE2"/>
    </vehicle>
    <vehicle id="1.22" depart="79.20">
        <route edges="gneE7 gneE1 gneE8"/>
    </vehicle>
    <vehicle id="2.22" depart="79.20">
        <route edges="gneE3 gneE1 gneE8"/>
    </vehicle>
    <vehicle id="3.22" depart="79.20">
        <route edges="gneE5 gneE6"/>
    </vehicle>
    <vehicle id="0.23" depart="82.80">
        <route edges="gneE9 gneE0 gneE2"/>
    </vehicle>
    <vehicle id="1.23" depart="82.80">
        <route edges="gneE7 gneE4"/>
    </vehicle>
    <vehicle id="2.23" depart="82.80">
        <route edges="gneE3 gneE4"/>
    </vehicle>
    <vehicle id="3.23" depart="82.80">
        <route edges="gneE5 gneE6"/>
    </vehicle>
    <vehicle id="0.24" depart="86.40">
        <route edges="gneE9 gneE0 gneE2"/>
    </vehicle>
    <vehicle id="1.24" depart="86.40">
        <route edges="gneE7 gneE2"/>
    </vehicle>
    <vehicle id="2.24" depart="86.40">
        <route edges="gneE3 gneE4"/>
    </vehicle>
    <vehicle id="3.24" depart="86.40">
        <route edges="gneE5 gneE6"/>
    </vehicle>
    <vehicle id="0.25" depart="90.00">
        <route edges="gneE9 gneE0 gneE2"/>
    </vehicle>
    <vehicle id="1.25" depart="90.00">
        <route edges="gneE7 gneE4"/>
    </vehicle>
    <vehicle id="2.25" depart="90.00">
        <route edges="gneE3 gneE6"/>
    </vehicle>
    <vehicle id="3.25" depart="90.00">
        <route edges="gneE5 gneE1 gneE8"/>
    </vehicle>
    <vehicle id="0.26" depart="93.60">
        <route edges="gneE9 gneE0 gneE2"/>
    </vehicle>
    <vehicle id="1.26" depart="93.60">
        <route edges="gneE7 gneE1 gneE8"/>
    </vehicle>
    <vehicle id="2.26" depart="93.60">
        <route edges="gneE3 gneE4"/>
    </vehicle>
    <vehicle id="3.26" depart="93.60">
        <route edges="gneE5 gneE6"/>
    </vehicle>
    <vehicle id="0.27" depart="97.20">
        <route edges="gneE9 gneE0 gneE2"/>
    </vehicle>
    <vehicle id="1.27" depart="97.20">
        <route edges="gneE7 gneE4"/>
    </vehicle>
    <vehicle id="2.27" depart="97.20">
        <route edges="gneE3 gneE4"/>
    </vehicle>
    <vehicle id="3.27" depart="97.20">
        <route edges="gneE5 gneE6"/>
    </vehicle>
    <vehicle id="0.28" depart="100.80">
        <route edges="gneE9 gneE0 gneE2"/>
    </vehicle>
    <vehicle id="1.28" depart="100.80">
        <route edges="gneE7 gneE2"/>
    </vehicle>
    <vehicle id="2.28" depart="100.80">
        <route edges="gneE3 gneE1 gneE8"/>
    </vehicle>
    <vehicle id="3.28" depart="100.80">
        <route edges="gneE5 gneE6"/>
    </vehicle>
    <vehicle id="0.29" depart="104.40">
        <route edges="gneE9 gneE0 gneE2"/>
    </vehicle>
    <vehicle id="1.29" depart="104.40">
        <route edges="gneE7 gneE2"/>
    </vehicle>
    <vehicle id="2.29" depart="104.40">
        <route edges="gneE3 gneE4"/>
    </vehicle>
    <vehicle id="3.29" depart="104.40">
        <route edges="gneE5 gneE1 gneE8"/>
    </vehicle>
    <vehicle id="0.30" depart="108.00">
        <route edges="gneE9 gneE0 gneE4"/>
    </vehicle>
    <vehicle id="1.30" depart="108.00">
        <route edges="gneE7 gneE1 gneE8"/>
    </vehicle>
    <vehicle id="2.30" depart="108.00">
        <route edges="gneE3 gneE1 gneE8"/>
    </vehicle>
    <vehicle id="3.30" depart="108.00">
        <route edges="gneE5 gneE1 gneE8"/>
    </vehicle>
    <vehicle id="0.31" depart="111.60">
        <route edges="gneE9 gneE0 gneE2"/>
    </vehicle>
    <vehicle id="1.31" depart="111.60">
        <route edges="gneE7 gneE4"/>
    </vehicle>
    <vehicle id="2.31" depart="111.60">
        <route edges="gneE3 gneE1 gneE8"/>
    </vehicle>
    <vehicle id="3.31" depart="111.60">
        <route edges="gneE5 gneE2"/>
    </vehicle>
    <vehicle id="0.32" depart="115.20">
        <route edges="gneE9 gneE0 gneE2"/>
    </vehicle>
    <vehicle id="1.32" depart="115.20">
        <route edges="gneE7 gneE4"/>
    </vehicle>
    <vehicle id="2.32" depart="115.20">
        <route edges="gneE3 gneE1 gneE8"/>
    </vehicle>
    <vehicle id="3.32" depart="115.20">
        <route edges="gneE5 gneE6"/>
    </vehicle>
    <vehicle id="0.33" depart="118.80">
        <route edges="gneE9 gneE0 gneE2"/>
    </vehicle>
    <vehicle id="1.33" depart="118.80">
        <route edges="gneE7 gneE1 gneE8"/>
    </vehicle>
    <vehicle id="2.33" depart="118.80">
        <route edges="gneE3 gneE4"/>
    </vehicle>
    <vehicle id="3.33" depart="118.80">
        <route edges="gneE5 gneE6"/>
    </vehicle>
    <vehicle id="0.34" depart="122.40">
        <route edges="gneE9 gneE0 gneE2"/>
    </vehicle>
    <vehicle id="1.34" depart="122.40">
        <route edges="gneE7 gneE1 gneE8"/>
    </vehicle>
    <vehicle id="2.34" depart="122.40">
        <route edges="gneE3 gneE1 gneE8"/>
    </vehicle>
    <vehicle id="3.34" depart="122.40">
        <route edges="gneE5 gneE6"/>
    </vehicle>
    <vehicle id="0.35" depart="126.00">
        <route edges="gneE9 gneE0 gneE2"/>
    </vehicle>
    <vehicle id="1.35" depart="126.00">
        <route edges="gneE7 gneE1 gneE8"/>
    </vehicle>
    <vehicle id="2.35" depart="126.00">
        <route edges="gneE3 gneE1 gneE8"/>
    </vehicle>
    <vehicle id="3.35" depart="126.00">
        <route edges="gneE5 gneE6"/>
    </vehicle>
    <vehicle id="0.36" depart="129.60">
        <route edges="gneE9 gneE0 gneE2"/>
    </vehicle>
    <vehicle id="1.36" depart="129.60">
        <route edges="gneE7 gneE2"/>
    </vehicle>
    <vehicle id="2.36" depart="129.60">
        <route edges="gneE3 gneE1 gneE8"/>
    </vehicle>
    <vehicle id="3.36" depart="129.60">
        <route edges="gneE5 gneE6"/>
    </vehicle>
    <vehicle id="0.37" depart="133.20">
        <route edges="gneE9 gneE0 gneE6"/>
    </vehicle>
    <vehicle id="1.37" depart="133.20">
        <route edges="gneE7 gneE2"/>
    </vehicle>
    <vehicle id="2.37" depart="133.20">
        <route edges="gneE3 gneE1 gneE8"/>
    </vehicle>
    <vehicle id="3.37" depart="133.20">
        <route edges="gneE5 gneE2"/>
    </vehicle>
    <vehicle id="0.38" depart="136.80">
        <route edges="gneE9 gneE0 gneE2"/>
    </vehicle>
    <vehicle id="1.38" depart="136.80">
        <route edges="gneE7 gneE4"/>
    </vehicle>
    <vehicle id="2.38" depart="136.80">
        <route edges="gneE3 gneE4"/>
    </vehicle>
    <vehicle id="3.38" depart="136.80">
        <route edges="gneE5 gneE6"/>
    </vehicle>
    <vehicle id="0.39" depart="140.40">
        <route edges="gneE9 gneE0 gneE2"/>
    </vehicle>
    <vehicle id="1.39" depart="140.40">
        <route edges="gneE7 gneE1 gneE8"/>
    </vehicle>
    <vehicle id="2.39" depart="140.40">
        <route edges="gneE3 gneE1 gneE8"/>
    </vehicle>
    <vehicle id="3.39" depart="140.40">
        <route edges="gneE5 gneE1 gneE8"/>
    </vehicle>
    <vehicle id="0.40" depart="144.00">
        <route edges="gneE9 gneE0 gneE2"/>
    </vehicle>
    <vehicle id="1.40" depart="144.00">
        <route edges="gneE7 gneE2"/>
    </vehicle>
    <vehicle id="2.40" depart="144.00">
        <route edges="gneE3 gneE1 gneE8"/>
    </vehicle>
    <vehicle id="3.40" depart="144.00">
        <route edges="gneE5 gneE6"/>
    </vehicle>
    <vehicle id="0.41" depart="147.60">
        <route edges="gneE9 gneE0 gneE2"/>
    </vehicle>
    <vehicle id="1.41" depart="147.60">
        <route edges="gneE7 gneE4"/>
    </vehicle>
    <vehicle id="2.41" depart="147.60">
        <route edges="gneE3 gneE1 gneE8"/>
    </vehicle>
    <vehicle id="3.41" depart="147.60">
        <route edges="gneE5 gneE6"/>
    </vehicle>
    <vehicle id="0.42" depart="151.20">
        <route edges="gneE9 gneE0 gneE2"/>
    </vehicle>
    <vehicle id="1.42" depart="151.20">
        <route edges="gneE7 gneE2"/>
    </vehicle>
    <vehicle id="2.42" depart="151.20">
        <route edges="gneE3 gneE4"/>
    </vehicle>
    <vehicle id="3.42" depart="151.20">
        <route edges="gneE5 gneE2"/>
    </vehicle>
    <vehicle id="0.43" depart="154.80">
        <route edges="gneE9 gneE0 gneE2"/>
    </vehicle>
    <vehicle id="1.43" depart="154.80">
        <route edges="gneE7 gneE2"/>
    </vehicle>
    <vehicle id="2.43" depart="154.80">
        <route edges="gneE3 gneE1 gneE8"/>
    </vehicle>
    <vehicle id="3.43" depart="154.80">
        <route edges="gneE5 gneE6"/>
    </vehicle>
    <vehicle id="0.44" depart="158.40">
        <route edges="gneE9 gneE0 gneE2"/>
    </vehicle>
    <vehicle id="1.44" depart="158.40">
        <route edges="gneE7 gneE1 gneE8"/>
    </vehicle>
    <vehicle id="2.44" depart="158.40">
        <route edges="gneE3 gneE4"/>
    </vehicle>
    <vehicle id="3.44" depart="158.40">
        <route edges="gneE5 gneE1 gneE8"/>
    </vehicle>
    <vehicle id="0.45" depart="162.00">
        <route edges="gneE9 gneE0 gneE4"/>
    </vehicle>
    <vehicle id="1.45" depart="162.00">
        <route edges="gneE7 gneE4"/>
    </vehicle>
    <vehicle id="2.45" depart="162.00">
        <route edges="gneE3 gneE4"/>
    </vehicle>
    <vehicle id="3.45" depart="162.00">
        <route edges="gneE5 gneE1 gneE8"/>
    </vehicle>
    <vehicle id="0.46" depart="165.60">
        <route edges="gneE9 gneE0 gneE2"/>
    </vehicle>
    <vehicle id="1.46" depart="165.60">
        <route edges="gneE7 gneE1 gneE8"/>
    </vehicle>
    <vehicle id="2.46" depart="165.60">
        <route edges="gneE3 gneE4"/>
    </vehicle>
    <vehicle id="3.46" depart="165.60">
        <route edges="gneE5 gneE6"/>
    </vehicle>
    <vehicle id="0.47" depart="169.20">
        <route edges="gneE9 gneE0 gneE2"/>
    </vehicle>
    <vehicle id="1.47" depart="169.20">
        <route edges="gneE7 gneE4"/>
    </vehicle>
    <vehicle id="2.47" depart="169.20">
        <route edges="gneE3 gneE1 gneE8"/>
    </vehicle>
    <vehicle id="3.47" depart="169.20">
        <route edges="gneE5 gneE6"/>
    </vehicle>
    <vehicle id="0.48" depart="172.80">
        <route edges="gneE9 gneE0 gneE6"/>
    </vehicle>
    <vehicle id="1.48" depart="172.80">
        <route edges="gneE7 gneE4"/>
    </vehicle>
    <vehicle id="2.48" depart="172.80">
        <route edges="gneE3 gneE1 gneE8"/>
    </vehicle>
    <vehicle id="3.48" depart="172.80">
        <route edges="gneE5 gneE6"/>
    </vehicle>
    <vehicle id="0.49" depart="176.40">
        <route edges="gneE9 gneE0 gneE4"/>
    </vehicle>
    <vehicle id="1.49" depart="176.40">
        <route edges="gneE7 gneE4"/>
    </vehicle>
    <vehicle id="2.49" depart="176.40">
        <route edges="gneE3 gneE1 gneE8"/>
    </vehicle>
    <vehicle id="3.49" depart="176.40">
        <route edges="gneE5 gneE6"/>
    </vehicle>
    <vehicle id="0.50" depart="180.00">
        <route edges="gneE9 gneE0 gneE2"/>
    </vehicle>
    <vehicle id="1.50" depart="180.00">
        <route edges="gneE7 gneE1 gneE8"/>
    </vehicle>
    <vehicle id="2.50" depart="180.00">
        <route edges="gneE3 gneE1 gneE8"/>
    </vehicle>
    <vehicle id="3.50" depart="180.00">
        <route edges="gneE5 gneE6"/>
    </vehicle>
    <vehicle id="0.51" depart="183.60">
        <route edges="gneE9 gneE0 gneE2"/>
    </vehicle>
    <vehicle id="1.51" depart="183.60">
        <route edges="gneE7 gneE1 gneE8"/>
    </vehicle>
    <vehicle id="2.51" depart="183.60">
        <route edges="gneE3 gneE1 gneE8"/>
    </vehicle>
    <vehicle id="3.51" depart="183.60">
        <route edges="gneE5 gneE6"/>
    </vehicle>
    <vehicle id="0.52" depart="187.20">
        <route edges="gneE9 gneE0 gneE4"/>
    </vehicle>
    <vehicle id="1.52" depart="187.20">
        <route edges="gneE7 gneE4"/>
    </vehicle>
    <vehicle id="2.52" depart="187.20">
        <route edges="gneE3 gneE1 gneE8"/>
    </vehicle>
    <vehicle id="3.52" depart="187.20">
        <route edges="gneE5 gneE6"/>
    </vehicle>
    <vehicle id="0.53" depart="190.80">
        <route edges="gneE9 gneE0 gneE2"/>
    </vehicle>
    <vehicle id="1.53" depart="190.80">
        <route edges="gneE7 gneE4"/>
    </vehicle>
    <vehicle id="2.53" depart="190.80">
        <route edges="gneE3 gneE1 gneE8"/>
    </vehicle>
    <vehicle id="3.53" depart="190.80">
        <route edges="gneE5 gneE1 gneE8"/>
    </vehicle>
    <vehicle id="0.54" depart="194.40">
        <route edges="gneE9 gneE0 gneE2"/>
    </vehicle>
    <vehicle id="1.54" depart="194.40">
        <route edges="gneE7 gneE1 gneE8"/>
    </vehicle>
    <vehicle id="2.54" depart="194.40">
        <route edges="gneE3 gneE1 gneE8"/>
    </vehicle>
    <vehicle id="3.54" depart="194.40">
        <route edges="gneE5 gneE6"/>
    </vehicle>
    <vehicle id="0.55" depart="198.00">
        <route edges="gneE9 gneE0 gneE6"/>
    </vehicle>
    <vehicle id="1.55" depart="198.00">
        <route edges="gneE7 gneE1 gneE8"/>
    </vehicle>
    <vehicle id="2.55" depart="198.00">
        <route edges="gneE3 gneE1 gneE8"/>
    </vehicle>
    <vehicle id="3.55" depart="198.00">
        <route edges="gneE5 gneE6"/>
    </vehicle>
    <vehicle id="0.56" depart="201.60">
        <route edges="gneE9 gneE0 gneE6"/>
    </vehicle>
    <vehicle id="1.56" depart="201.60">
        <route edges="gneE7 gneE2"/>
    </vehicle>
    <vehicle id="2.56" depart="201.60">
        <route edges="gneE3 gneE1 gneE8"/>
    </vehicle>
    <vehicle id="3.56" depart="201.60">
        <route edges="gneE5 gneE2"/>
    </vehicle>
    <vehicle id="0.57" depart="205.20">
        <route edges="gneE9 gneE0 gneE6"/>
    </vehicle>
    <vehicle id="1.57" depart="205.20">
        <route edges="gneE7 gneE4"/>
    </vehicle>
    <vehicle id="2.57" depart="205.20">
        <route edges="gneE3 gneE4"/>
    </vehicle>
    <vehicle id="3.57" depart="205.20">
        <route edges="gneE5 gneE6"/>
    </vehicle>
    <vehicle id="0.58" depart="208.80">
        <route edges="gneE9 gneE0 gneE2"/>
    </vehicle>
    <vehicle id="1.58" depart="208.80">
        <route edges="gneE7 gneE4"/>
    </vehicle>
    <vehicle id="2.58" depart="208.80">
        <route edges="gneE3 gneE1 gneE8"/>
    </vehicle>
    <vehicle id="3.58" depart="208.80">
        <route edges="gneE5 gneE6"/>
    </vehicle>
    <vehicle id="0.59" depart="212.40">
        <route edges="gneE9 gneE0 gneE2"/>
    </vehicle>
    <vehicle id="1.59" depart="212.40">
        <route edges="gneE7 gneE4"/>
    </vehicle>
    <vehicle id="2.59" depart="212.40">
        <route edges="gneE3 gneE1 gneE8"/>
    </vehicle>
    <vehicle id="3.59" depart="212.40">
        <route edges="gneE5 gneE1 gneE8"/>
    </vehicle>
    <vehicle id="0.60" depart="216.00">
        <route edges="gneE9 gneE0 gneE6"/>
    </vehicle>
    <vehicle id="1.60" depart="216.00">
        <route edges="gneE7 gneE1 gneE8"/>
    </vehicle>
    <vehicle id="2.60" depart="216.00">
        <route edges="gneE3 gneE1 gneE8"/>
    </vehicle>
    <vehicle id="3.60" depart="216.00">
        <route edges="gneE5 gneE6"/>
    </vehicle>
    <vehicle id="0.61" depart="219.60">
        <route edges="gneE9 gneE0 gneE2"/>
    </vehicle>
    <vehicle id="1.61" depart="219.60">
        <route edges="gneE7 gneE4"/>
    </vehicle>
    <vehicle id="2.61" depart="219.60">
        <route edges="gneE3 gneE1 gneE8"/>
    </vehicle>
    <vehicle id="3.61" depart="219.60">
        <route edges="gneE5 gneE6"/>
    </vehicle>
    <vehicle id="0.62" depart="223.20">
        <route edges="gneE9 gneE0 gneE2"/>
    </vehicle>
    <vehicle id="1.62" depart="223.20">
        <route edges="gneE7 gneE2"/>
    </vehicle>
    <vehicle id="2.62" depart="223.20">
        <route edges="gneE3 gneE1 gneE8"/>
    </vehicle>
    <vehicle id="3.62" depart="223.20">
        <route edges="gneE5 gneE6"/>
    </vehicle>
    <vehicle id="0.63" depart="226.80">
        <route edges="gneE9 gneE0 gneE2"/>
    </vehicle>
    <vehicle id="1.63" depart="226.80">
        <route edges="gneE7 gneE4"/>
    </vehicle>
    <vehicle id="2.63" depart="226.80">
        <route edges="gneE3 gneE6"/>
    </vehicle>
    <vehicle id="3.63" depart="226.80">
        <route edges="gneE5 gneE1 gneE8"/>
    </vehicle>
    <vehicle id="0.64" depart="230.40">
        <route edges="gneE9 gneE0 gneE6"/>
    </vehicle>
    <vehicle id="1.64" depart="230.40">
        <route edges="gneE7 gneE4"/>
    </vehicle>
    <vehicle id="2.64" depart="230.40">
        <route edges="gneE3 gneE1 gneE8"/>
    </vehicle>
    <vehicle id="3.64" depart="230.40">
        <route edges="gneE5 gneE1 gneE8"/>
    </vehicle>
    <vehicle id="0.65" depart="234.00">
        <route edges="gneE9 gneE0 gneE6"/>
    </vehicle>
    <vehicle id="1.65" depart="234.00">
        <route edges="gneE7 gneE1 gneE8"/>
    </vehicle>
    <vehicle id="2.65" depart="234.00">
        <route edges="gneE3 gneE1 gneE8"/>
    </vehicle>
    <vehicle id="3.65" depart="234.00">
        <route edges="gneE5 gneE2"/>
    </vehicle>
    <vehicle id="0.66" depart="237.60">
        <route edges="gneE9 gneE0 gneE6"/>
    </vehicle>
    <vehicle id="1.66" depart="237.60">
        <route edges="gneE7 gneE4"/>
    </vehicle>
    <vehicle id="2.66" depart="237.60">
        <route edges="gneE3 gneE1 gneE8"/>
    </vehicle>
    <vehicle id="3.66" depart="237.60">
        <route edges="gneE5 gneE6"/>
    </vehicle>
    <vehicle id="0.67" depart="241.20">
        <route edges="gneE9 gneE0 gneE6"/>
    </vehicle>
    <vehicle id="1.67" depart="241.20">
        <route edges="gneE7 gneE4"/>
    </vehicle>
    <vehicle id="2.67" depart="241.20">
        <route edges="gneE3 gneE1 gneE8"/>
    </vehicle>
    <vehicle id="3.67" depart="241.20">
        <route edges="gneE5 gneE6"/>
    </vehicle>
    <vehicle id="0.68" depart="244.80">
        <route edges="gneE9 gneE0 gneE2"/>
    </vehicle>
    <vehicle id="1.68" depart="244.80">
        <route edges="gneE7 gneE1 gneE8"/>
    </vehicle>
    <vehicle id="2.68" depart="244.80">
        <route edges="gneE3 gneE4"/>
    </vehicle>
    <vehicle id="3.68" depart="244.80">
        <route edges="gneE5 gneE6"/>
    </vehicle>
    <vehicle id="0.69" depart="248.40">
        <route edges="gneE9 gneE0 gneE2"/>
    </vehicle>
    <vehicle id="1.69" depart="248.40">
        <route edges="gneE7 gneE1 gneE8"/>
    </vehicle>
    <vehicle id="2.69" depart="248.40">
        <route edges="gneE3 gneE1 gneE8"/>
    </vehicle>
    <vehicle id="3.69" depart="248.40">
        <route edges="gneE5 gneE6"/>
    </vehicle>
    <vehicle id="0.70" depart="252.00">
        <route edges="gneE9 gneE0 gneE6"/>
    </vehicle>
    <vehicle id="1.70" depart="252.00">
        <route edges="gneE7 gneE4"/>
    </vehicle>
    <vehicle id="2.70" depart="252.00">
        <route edges="gneE3 gneE1 gneE8"/>
    </vehicle>
    <vehicle id="3.70" depart="252.00">
        <route edges="gneE5 gneE6"/>
    </vehicle>
    <vehicle id="0.71" depart="255.60">
        <route edges="gneE9 gneE0 gneE2"/>
    </vehicle>
    <vehicle id="1.71" depart="255.60">
        <route edges="gneE7 gneE4"/>
    </vehicle>
    <vehicle id="2.71" depart="255.60">
        <route edges="gneE3 gneE1 gneE8"/>
    </vehicle>
    <vehicle id="3.71" depart="255.60">
        <route edges="gneE5 gneE1 gneE8"/>
    </vehicle>
    <vehicle id="0.72" depart="259.20">
        <route edges="gneE9 gneE0 gneE2"/>
    </vehicle>
    <vehicle id="1.72" depart="259.20">
        <route edges="gneE7 gneE2"/>
    </vehicle>
    <vehicle id="2.72" depart="259.20">
        <route edges="gneE3 gneE4"/>
    </vehicle>
    <vehicle id="3.72" depart="259.20">
        <route edges="gneE5 gneE2"/>
    </vehicle>
    <vehicle id="0.73" depart="262.80">
        <route edges="gneE9 gneE0 gneE2"/>
    </vehicle>
    <vehicle id="1.73" depart="262.80">
        <route edges="gneE7 gneE4"/>
    </vehicle>
    <vehicle id="2.73" depart="262.80">