<?xml version="1.0" encoding="UTF-8"?>

<!-- generated on 10/22/20 14:13:57 by Eclipse SUMO netedit Version 1.7.0
<configuration xmlns:xsi="http://www.w3.org/2001/XMLSchema-instance" xsi:noNamespaceSchemaLocation="http://sumo.dlr.de/xsd/netconvertConfiguration.xsd">

    <output>
        <output-file value="C:\Users\Admin\Documents\Sumo\test.net.xml"/>
    </output>

    <processing>
        <offset.disable-normalization value="true"/>
    </processing>

    <junctions>
        <no-turnarounds value="true"/>
    </junctions>

    <report>
        <aggregate-warnings value="5"/>
    </report>

</configuration>
-->

<net version="1.6" junctionCornerDetail="5" limitTurnSpeed="5.50" xmlns:xsi="http://www.w3.org/2001/XMLSchema-instance" xsi:noNamespaceSchemaLocation="http://sumo.dlr.de/xsd/net_file.xsd">

    <location netOffset="0.00,0.00" convBoundary="-171.07,-189.41,276.76,189.21" origBoundary="10000000000.00,10000000000.00,-10000000000.00,-10000000000.00" projParameter="!"/>

    <edge id=":gneJ0_0" function="internal">
        <lane id=":gneJ0_0_0" index="0" speed="13.89" length="8.41" shape="-17.37,66.97 -19.84,66.48 -21.38,65.38 -22.92,64.27 -25.38,63.77"/>
        <lane id=":gneJ0_0_1" index="1" speed="13.89" length="8.41" shape="-17.37,63.77 -25.38,63.77"/>
    </edge>
    <edge id=":gneJ0_2" function="internal">
        <lane id=":gneJ0_2_0" index="0" speed="13.89" length="8.39" shape="-25.37,60.57 -22.91,60.07 -21.38,58.98 -19.84,57.88 -17.38,57.37"/>
        <lane id=":gneJ0_2_1" index="1" speed="13.89" length="8.39" shape="-25.37,60.57 -17.38,60.57"/>
    </edge>
    <edge id=":gneJ1_0" function="internal">
        <lane id=":gneJ1_0_0" index="0" speed="6.68" length="9.37" shape="75.79,72.39 75.34,69.96 74.17,68.23 72.28,67.19 69.66,66.85"/>
    </edge>
    <edge id=":gneJ1_1" function="internal">
        <lane id=":gneJ1_1_0" index="0" speed="13.89" length="20.81" shape="75.79,72.39 75.09,51.59"/>
    </edge>
    <edge id=":gneJ1_2" function="internal">
        <lane id=":gneJ1_2_0" index="0" speed="9.13" length="19.14" shape="75.79,72.39 76.38,67.16 78.50,63.41 82.17,61.15 87.37,60.36"/>
    </edge>
    <edge id=":gneJ1_3" function="internal">
        <lane id=":gneJ1_3_0" index="0" speed="7.86" length="13.90" shape="87.40,63.56 83.62,64.13 80.96,65.78 79.42,68.50 78.99,72.29"/>
    </edge>
    <edge id=":gneJ1_4" function="internal">
        <lane id=":gneJ1_4_0" index="0" speed="13.89" length="17.75" shape="87.40,63.56 69.65,63.65"/>
    </edge>
    <edge id=":gneJ1_5" function="internal">
        <lane id=":gneJ1_5_0" index="0" speed="9.38" length="19.45" shape="87.40,63.56 82.18,62.85 78.39,60.61 76.03,56.86 75.09,51.59"/>
    </edge>
    <edge id=":gneJ1_6" function="internal">
        <lane id=":gneJ1_6_0" index="0" speed="7.48" length="12.00" shape="81.49,51.36 81.98,55.31 83.12,58.13 84.92,59.81 87.37,60.36"/>
    </edge>
    <edge id=":gneJ1_7" function="internal">
        <lane id=":gneJ1_7_0" index="0" speed="13.89" length="20.83" shape="78.29,51.47 78.99,72.29"/>
    </edge>
    <edge id=":gneJ1_8" function="internal">
        <lane id=":gneJ1_8_0" index="0" speed="8.61" length="17.05" shape="78.29,51.47 77.92,56.80 76.35,60.60 73.60,62.88 69.65,63.65"/>
    </edge>
    <edge id=":gneJ1_9" function="internal">
        <lane id=":gneJ1_9_0" index="0" speed="6.43" length="9.03" shape="69.64,57.25 72.10,56.89 73.83,55.83 74.83,54.06 75.09,51.59"/>
    </edge>
    <edge id=":gneJ1_10" function="internal">
        <lane id=":gneJ1_10_0" index="0" speed="13.89" length="17.73" shape="69.65,60.45 87.37,60.36"/>
    </edge>
    <edge id=":gneJ1_11" function="internal">
        <lane id=":gneJ1_11_0" index="0" speed="8.80" length="3.64" shape="69.65,60.45 73.22,61.12"/>
    </edge>
    <edge id=":gneJ1_12" function="internal">
        <lane id=":gneJ1_12_0" index="0" speed="8.80" length="13.36" shape="73.22,61.12 73.60,61.18 76.47,63.40 78.27,67.11 78.99,72.29"/>
    </edge>

    <edge id="gneE0" from="gneJ0" to="gneJ1" priority="-1">
        <lane id="gneE0_0" index="0" speed="13.89" length="87.03" shape="-17.38,57.37 69.64,57.25"/>
        <lane id="gneE0_1" index="1" speed="13.89" length="87.03" shape="-17.38,60.57 69.65,60.45"/>
    </edge>
    <edge id="gneE1" from="gneJ1" to="gneJ0" priority="-1">
        <lane id="gneE1_0" index="0" speed="13.89" length="87.03" shape="69.66,66.85 -17.37,66.97"/>
        <lane id="gneE1_1" index="1" speed="13.89" length="87.03" shape="69.65,63.65 -17.37,63.77"/>
    </edge>
    <edge id="gneE2" from="gneJ1" to="gneJ2" priority="-1">
        <lane id="gneE2_0" index="0" speed="13.89" length="189.38" shape="87.37,60.36 276.75,58.89"/>
    </edge>
    <edge id="gneE3" from="gneJ2" to="gneJ1" priority="-1">
        <lane id="gneE3_0" index="0" speed="13.89" length="189.38" shape="276.78,62.09 87.40,63.56"/>
    </edge>
    <edge id="gneE4" from="gneJ1" to="gneJ3" priority="-1">
        <lane id="gneE4_0" index="0" speed="13.89" length="116.93" shape="78.99,72.29 82.61,189.16"/>
    </edge>
    <edge id="gneE5" from="gneJ3" to="gneJ1" priority="-1">
        <lane id="gneE5_0" index="0" speed="13.89" length="116.93" shape="79.42,189.26 75.79,72.39"/>
    </edge>
    <edge id="gneE6" from="gneJ1" to="gneJ4" priority="-1">
        <lane id="gneE6_0" index="0" speed="13.89" length="241.10" shape="75.09,51.59 66.41,-189.35"/>
    </edge>
    <edge id="gneE7" from="gneJ4" to="gneJ1" priority="-1">
        <lane id="gneE7_0" index="0" speed="13.89" length="241.10" shape="72.81,-189.58 81.49,51.36"/>
        <lane id="gneE7_1" index="1" speed="13.89" length="241.10" shape="69.61,-189.47 78.29,51.47"/>
    </edge>
    <edge id="gneE8" from="gneJ0" to="gneJ5" priority="-1">
        <lane id="gneE8_0" index="0" speed="13.89" length="145.69" shape="-25.38,63.77 -171.07,63.27"/>
    </edge>
    <edge id="gneE9" from="gneJ5" to="gneJ0" priority="-1">
        <lane id="gneE9_0" index="0" speed="13.89" length="145.69" shape="-171.06,60.07 -25.37,60.57"/>
    </edge>

    <tlLogic id="gneJ1" type="static" programID="0" offset="0">
        <phase duration="18" state="rrrrrrGGGGrr"/>
        <phase duration="3"  state="rrrrrryyyyrr"/>
        <phase duration="20" state="GGGGrrrrrrrr"/>
        <phase duration="3"  state="yyyyrrrrrrrr"/>
        <phase duration="20" state="GrrrrrrrrGGG"/>
        <phase duration="3"  state="yrrrrrrrryyy"/>
        <phase duration="20" state="rrrGGGGrrrrr"/>
        <phase duration="3"  state="rrryyyyrrrrr"/>
    </tlLogic>

    <junction id="gneJ0" type="priority" x="-21.38" y="62.18" incLanes="gneE1_0 gneE1_1 gneE9_0" intLanes=":gneJ0_0_0 :gneJ0_0_1 :gneJ0_2_0 :gneJ0_2_1" shape="-17.37,68.57 -17.39,55.77 -20.41,56.61 -22.34,58.15 -23.58,58.74 -25.37,58.97 -25.39,65.37 -22.35,66.21 -20.41,67.75 -19.16,68.34">
        <request index="0" response="0010" foes="0010" cont="0"/>
        <request index="1" response="0000" foes="0001" cont="0"/>
        <request index="2" response="0000" foes="0000" cont="0"/>
        <request index="3" response="0000" foes="0000" cont="0"/>
    </junction>
    <junction id="gneJ1" type="traffic_light" x="77.07" y="62.04" incLanes="gneE5_0 gneE3_0 gneE7_0 gneE7_1 gneE0_0 gneE0_1" intLanes=":gneJ1_0_0 :gneJ1_1_0 :gneJ1_2_0 :gneJ1_3_0 :gneJ1_4_0 :gneJ1_5_0 :gneJ1_6_0 :gneJ1_7_0 :gneJ1_8_0 :gneJ1_9_0 :gneJ1_10_0 :gneJ1_12_0" shape="74.19,72.44 80.59,72.24 80.72,70.09 81.25,68.33 82.19,66.96 83.52,65.97 85.27,65.37 87.41,65.16 87.36,58.76 85.11,57.94 84.29,56.91 83.68,55.46 83.28,53.59 83.09,51.30 73.50,51.65 73.13,53.87 72.60,54.65 71.85,55.20 70.86,55.54 69.64,55.65 69.66,68.45 72.12,68.89 73.00,69.44 73.63,70.22 74.03,71.22">
        <request index="0"  response="000000000000" foes="000000000000" cont="0"/>
        <request index="1"  response="111100000000" foes="111100110000" cont="0"/>
        <request index="2"  response="110011000000" foes="110011110000" cont="0"/>
        <request index="3"  response="100010000000" foes="100010000000" cont="0"/>
        <request index="4"  response="100110000110" foes="100110000110" cont="0"/>
        <request index="5"  response="011110000110" foes="011110000110" cont="0"/>
        <request index="6"  response="000000000000" foes="010000000100" cont="0"/>
        <request index="7"  response="100000000000" foes="110000111100" cont="0"/>
        <request index="8"  response="000000000000" foes="110000110010" cont="0"/>
        <request index="9"  response="000000000000" foes="000000100010" cont="0"/>
        <request index="10" response="000111000000" foes="000111100110" cont="0"/>
        <request index="11" response="000110000000" foes="000110011110" cont="1"/>
    </junction>
    <junction id="gneJ2" type="dead_end" x="276.76" y="60.49" incLanes="gneE2_0" intLanes="" shape="276.76,60.49 276.74,57.29 276.76,60.49"/>
    <junction id="gneJ3" type="dead_end" x="81.02" y="189.21" incLanes="gneE4_0" intLanes="" shape="81.02,189.21 84.21,189.11 81.02,189.21"/>
    <junction id="gneJ4" type="dead_end" x="68.01" y="-189.41" incLanes="gneE6_0" intLanes="" shape="68.01,-189.41 64.81,-189.29 68.01,-189.41"/>
    <junction id="gneJ5" type="dead_end" x="-171.07" y="61.67" incLanes="gneE8_0" intLanes="" shape="-171.07,61.67 -171.08,64.87 -171.07,61.67"/>

    <junction id=":gneJ1_12_0" type="internal" x="73.22" y="61.12" incLanes=":gneJ1_11_0 gneE7_1" intLanes=":gneJ1_1_0 :gneJ1_2_0 :gneJ1_3_0 :gneJ1_4_0 :gneJ1_7_0 :gneJ1_8_0"/>

    <connection from="gneE0" to="gneE6" fromLane="0" toLane="0" via=":gneJ1_9_0" tl="gneJ1" linkIndex="9" dir="r" state="O"/>
    <connection from="gneE0" to="gneE2" fromLane="1" toLane="0" via=":gneJ1_10_0" tl="gneJ1" linkIndex="10" dir="s" state="o"/>
    <connection from="gneE0" to="gneE4" fromLane="1" toLane="0" via=":gneJ1_11_0" tl="gneJ1" linkIndex="11" dir="l" state="o"/>
    <connection from="gneE1" to="gneE8" fromLane="0" toLane="0" via=":gneJ0_0_0" dir="s" state="m"/>
    <connection from="gneE1" to="gneE8" fromLane="1" toLane="0" keepClear="0" via=":gneJ0_0_1" dir="s" state="M"/>
    <connection from="gneE3" to="gneE4" fromLane="0" toLane="0" via=":gneJ1_3_0" tl="gneJ1" linkIndex="3" dir="r" state="o"/>
    <connection from="gneE3" to="gneE1" fromLane="0" toLane="1" via=":gneJ1_4_0" tl="gneJ1" linkIndex="4" dir="s" state="o"/>
    <connection from="gneE3" to="gneE6" fromLane="0" toLane="0" via=":gneJ1_5_0" tl="gneJ1" linkIndex="5" dir="l" state="o"/>
    <connection from="gneE5" to="gneE1" fromLane="0" toLane="0" via=":gneJ1_0_0" tl="gneJ1" linkIndex="0" dir="r" state="O"/>
    <connection from="gneE5" to="gneE6" fromLane="0" toLane="0" via=":gneJ1_1_0" tl="gneJ1" linkIndex="1" dir="s" state="o"/>
    <connection from="gneE5" to="gneE2" fromLane="0" toLane="0" via=":gneJ1_2_0" tl="gneJ1" linkIndex="2" dir="l" state="o"/>
    <connection from="gneE7" to="gneE2" fromLane="0" toLane="0" via=":gneJ1_6_0" tl="gneJ1" linkIndex="6" dir="r" state="O"/>
    <connection from="gneE7" to="gneE4" fromLane="1" toLane="0" via=":gneJ1_7_0" tl="gneJ1" linkIndex="7" dir="s" state="O"/>
    <connection from="gneE7" to="gneE1" fromLane="1" toLane="1" via=":gneJ1_8_0" tl="gneJ1" linkIndex="8" dir="l" state="O"/>
    <connection from="gneE9" to="gneE0" fromLane="0" toLane="0" keepClear="0" via=":gneJ0_2_0" dir="s" state="M"/>
    <connection from="gneE9" to="gneE0" fromLane="0" toLane="1" keepClear="0" via=":gneJ0_2_1" dir="s" state="M"/>

    <connection from=":gneJ0_0" to="gneE8" fromLane="0" toLane="0" dir="s" state="M"/>
    <connection from=":gneJ0_0" to="gneE8" fromLane="1" toLane="0" dir="s" state="M"/>
    <connection from=":gneJ0_2" to="gneE0" fromLane="0" toLane="0" dir="s" state="M"/>
    <connection from=":gneJ0_2" to="gneE0" fromLane="1" toLane="1" dir="s" state="M"/>
    <connection from=":gneJ1_0" to="gneE1" fromLane="0" toLane="0" dir="r" state="M"/>
    <connection from=":gneJ1_1" to="gneE6" fromLane="0" toLane="0" dir="s" state="M"/>
    <connection from=":gneJ1_2" to="gneE2" fromLane="0" toLane="0" dir="l" state="M"/>
    <connection from=":gneJ1_3" to="gneE4" fromLane="0" toLane="0" dir="r" state="M"/>
    <connection from=":gneJ1_4" to="gneE1" fromLane="0" toLane="1" dir="s" state="M"/>
    <connection from=":gneJ1_5" to="gneE6" fromLane="0" toLane="0" dir="l" state="M"/>
    <connection from=":gneJ1_6" to="gneE2" fromLane="0" toLane="0" dir="r" state="M"/>
    <connection from=":gneJ1_7" to="gneE4" fromLane="0" toLane="0" dir="s" state="M"/>
    <connection from=":gneJ1_8" to="gneE1" fromLane="0" toLane="1" dir="l" state="M"/>
    <connection from=":gneJ1_9" to="gneE6" fromLane="0" toLane="0" dir="r" state="M"/>
    <connection from=":gneJ1_10" to="gneE2" fromLane="0" toLane="0" dir="s" state="M"/>
    <connection from=":gneJ1_11" to="gneE4" fromLane="0" toLane="0" via=":gneJ1_12_0" dir="l" state="m"/>
    <connection from=":gneJ1_12" to="gneE4" fromLane="0" toLane="0" dir="l" state="M"/>

</net>
